REMARK  Name = 
REMARK  3 active torsions:
REMARK  status: ('A' for Active; 'I' for Inactive)
REMARK    1  A    between atoms: C_1  and  C_2
REMARK    2  A    between atoms: C_2  and  O_3
REMARK    3  A    between atoms: C_2  and  C_4
REMARK                            x       y       z     vdW  Elec       q    Type
REMARK                         _______ _______ _______ _____ _____    ______ ____
ROOT
ATOM      1  C   UNL     1      -0.124   0.228  -0.186  0.00  0.00    -0.019 A 
ATOM      2  C   UNL     1       0.595   1.095  -1.020  0.00  0.00    -0.056 A 
ATOM      3  C   UNL     1       1.992   1.087  -1.017  0.00  0.00    -0.061 A 
ATOM      4  C   UNL     1       2.684   0.213  -0.182  0.00  0.00    -0.062 A 
ATOM      5  C   UNL     1       1.982  -0.654   0.652  0.00  0.00    -0.061 A 
ATOM      6  C   UNL     1       0.587  -0.648   0.650  0.00  0.00    -0.056 A 
ATOM      7  H   UNL     1       0.074   1.784  -1.681  0.00  0.00    +0.062 HD
ATOM      8  H   UNL     1       2.540   1.763  -1.669  0.00  0.00    +0.062 HD
ATOM      9  H   UNL     1       3.771   0.207  -0.181  0.00  0.00    +0.062 HD
ATOM     10  H   UNL     1       2.521  -1.338   1.304  0.00  0.00    +0.062 HD
ATOM     11  H   UNL     1       0.051  -1.331   1.307  0.00  0.00    +0.062 HD
ENDROOT
BRANCH   1  12
ATOM     12  C   UNL     1      -1.637   0.242  -0.192  0.00  0.00    +0.077 C 
ATOM     13  H   UNL     1      -1.998   1.092  -0.783  0.00  0.00    +0.064 HD
BRANCH  12  14
ATOM     14  C   UNL     1      -2.235  -1.038  -0.760  0.00  0.00    -0.035 C 
ATOM     15  H   UNL     1      -1.981  -1.909  -0.144  0.00  0.00    +0.026 HD
ATOM     16  H   UNL     1      -3.328  -0.975  -0.771  0.00  0.00    +0.026 HD
ATOM     17  H   UNL     1      -1.886  -1.225  -1.781  0.00  0.00    +0.026 HD
ENDBRANCH  12  14
BRANCH  12  18
ATOM     18  O   UNL     1      -2.131   0.432   1.133  0.00  0.00    -0.387 OA
ATOM     19  H   UNL     1      -1.476   0.974   1.606  0.00  0.00    +0.210 HD
ENDBRANCH  12  18
ENDBRANCH   1  12
TORSDOF 3
