REMARK  Name = 
REMARK  3 active torsions:
REMARK  status: ('A' for Active; 'I' for Inactive)
REMARK    1  A    between atoms: C_1  and  C_2
REMARK    2  A    between atoms: C_2  and  O_3
REMARK    3  A    between atoms: C_2  and  C_4
REMARK                            x       y       z     vdW  Elec       q    Type
REMARK                         _______ _______ _______ _____ _____    ______ ____
ROOT
ATOM      1  C   UNL     1      -0.090  -0.237   0.055  0.00  0.00    -0.019 A 
ATOM      2  C   UNL     1       0.751  -1.134  -0.619  0.00  0.00    -0.056 A 
ATOM      3  C   UNL     1       2.131  -0.928  -0.648  0.00  0.00    -0.061 A 
ATOM      4  C   UNL     1       2.687   0.176  -0.005  0.00  0.00    -0.062 A 
ATOM      5  C   UNL     1       1.863   1.076   0.668  0.00  0.00    -0.061 A 
ATOM      6  C   UNL     1       0.483   0.871   0.698  0.00  0.00    -0.056 A 
ATOM      7  H   UNL     1       0.337  -2.002  -1.129  0.00  0.00    +0.062 HD
ATOM      8  H   UNL     1       2.774  -1.629  -1.174  0.00  0.00    +0.062 HD
ATOM      9  H   UNL     1       3.762   0.336  -0.029  0.00  0.00    +0.062 HD
ATOM     10  H   UNL     1       2.295   1.939   1.169  0.00  0.00    +0.062 HD
ATOM     11  H   UNL     1      -0.149   1.582   1.228  0.00  0.00    +0.062 HD
ENDROOT
BRANCH   1  12
ATOM     12  C   UNL     1      -1.586  -0.467   0.084  0.00  0.00    +0.077 C 
ATOM     13  H   UNL     1      -1.817  -1.455  -0.331  0.00  0.00    +0.064 HD
BRANCH  12  14
ATOM     14  C   UNL     1      -2.357   0.587  -0.699  0.00  0.00    -0.035 C 
ATOM     15  H   UNL     1      -2.235   1.584  -0.261  0.00  0.00    +0.026 HD
ATOM     16  H   UNL     1      -3.430   0.367  -0.674  0.00  0.00    +0.026 HD
ATOM     17  H   UNL     1      -2.033   0.626  -1.744  0.00  0.00    +0.026 HD
ENDBRANCH  12  14
BRANCH  12  18
ATOM     18  O   UNL     1      -2.054  -0.473   1.431  0.00  0.00    -0.387 OA
ATOM     19  H   UNL     1      -1.331  -0.819   1.982  0.00  0.00    +0.210 HD
ENDBRANCH  12  18
ENDBRANCH   1  12
TORSDOF 3
