MODEL 1
REMARK minimizedAffinity -5.92080593
REMARK minimizedRMSD -1
REMARK  Name = 
REMARK  3 active torsions:
REMARK  status: ('A' for Active; 'I' for Inactive)
REMARK    1  A    between atoms: C_1  and  C_2
REMARK    2  A    between atoms: C_2  and  O_3
REMARK    3  A    between atoms: C_2  and  C_4
REMARK                            x       y       z     vdW  Elec       q    Type
REMARK                         _______ _______ _______ _____ _____    ______ ____
ROOT
ATOM      1  C   UNL     1      22.049  54.768  28.286  0.00  0.00    -0.019 A 
ATOM      2  C   UNL     1      21.888  53.833  27.255  0.00  0.00    -0.056 A 
ATOM      3  C   UNL     1      22.946  53.001  26.879  0.00  0.00    -0.061 A 
ATOM      4  C   UNL     1      24.174  53.096  27.530  0.00  0.00    -0.062 A 
ATOM      5  C   UNL     1      24.348  54.021  28.556  0.00  0.00    -0.061 A 
ATOM      6  C   UNL     1      23.292  54.852  28.933  0.00  0.00    -0.056 A 
ATOM      7  H   UNL     1      20.937  53.741  26.735  0.00  0.00    +0.062 HD
ATOM      8  H   UNL     1      22.810  52.278  26.079  0.00  0.00    +0.062 HD
ATOM      9  H   UNL     1      24.996  52.448  27.238  0.00  0.00    +0.062 HD
ATOM     10  H   UNL     1      25.306  54.096  29.066  0.00  0.00    +0.062 HD
ATOM     11  H   UNL     1      23.442  55.571  29.737  0.00  0.00    +0.062 HD
ENDROOT
BRANCH   1  12
ATOM     12  C   UNL     1      20.900  55.668  28.687  0.00  0.00    +0.077 C 
ATOM     13  H   UNL     1      21.280  56.665  28.939  0.00  0.00    +0.064 HD
BRANCH  12  14
ATOM     14  C   UNL     1      19.851  55.805  27.593  0.00  0.00    -0.035 C 
ATOM     15  H   UNL     1      19.370  54.845  27.373  0.00  0.00    +0.026 HD
ATOM     16  H   UNL     1      19.053  56.484  27.914  0.00  0.00    +0.026 HD
ATOM     17  H   UNL     1      20.286  56.193  26.666  0.00  0.00    +0.026 HD
ENDBRANCH  12  14
BRANCH  12  18
ATOM     18  O   UNL     1      20.273  55.165  29.866  0.00  0.00    -0.387 OA
ATOM     19  H   UNL     1      20.962  54.716  30.386  0.00  0.00    +0.210 HD
ENDBRANCH  12  18
ENDBRANCH   1  12
TORSDOF 3
ENDMDL
MODEL 2
REMARK minimizedAffinity -5.91705704
REMARK minimizedRMSD -1
REMARK  Name = 
REMARK  3 active torsions:
REMARK  status: ('A' for Active; 'I' for Inactive)
REMARK    1  A    between atoms: C_1  and  C_2
REMARK    2  A    between atoms: C_2  and  O_3
REMARK    3  A    between atoms: C_2  and  C_4
REMARK                            x       y       z     vdW  Elec       q    Type
REMARK                         _______ _______ _______ _____ _____    ______ ____
ROOT
ATOM      1  C   UNL     1      22.049  54.765  28.265  0.00  0.00    -0.019 A 
ATOM      2  C   UNL     1      23.278  54.842  28.935  0.00  0.00    -0.056 A 
ATOM      3  C   UNL     1      24.336  54.004  28.575  0.00  0.00    -0.061 A 
ATOM      4  C   UNL     1      24.179  53.084  27.542  0.00  0.00    -0.062 A 
ATOM      5  C   UNL     1      22.963  52.997  26.867  0.00  0.00    -0.061 A 
ATOM      6  C   UNL     1      21.905  53.833  27.225  0.00  0.00    -0.056 A 
ATOM      7  H   UNL     1      23.422  55.555  29.744  0.00  0.00    +0.062 HD
ATOM      8  H   UNL     1      25.285  54.072  29.101  0.00  0.00    +0.062 HD
ATOM      9  H   UNL     1      25.003  52.433  27.262  0.00  0.00    +0.062 HD
ATOM     10  H   UNL     1      22.839  52.280  26.059  0.00  0.00    +0.062 HD
ATOM     11  H   UNL     1      20.961  53.755  26.688  0.00  0.00    +0.062 HD
ENDROOT
BRANCH   1  12
ATOM     12  C   UNL     1      20.905  55.674  28.660  0.00  0.00    +0.077 C 
ATOM     13  H   UNL     1      21.291  56.669  28.909  0.00  0.00    +0.064 HD
BRANCH  12  14
ATOM     14  C   UNL     1      19.860  55.814  27.562  0.00  0.00    -0.035 C 
ATOM     15  H   UNL     1      19.373  54.856  27.344  0.00  0.00    +0.026 HD
ATOM     16  H   UNL     1      19.066  56.499  27.878  0.00  0.00    +0.026 HD
ATOM     17  H   UNL     1      20.300  56.195  26.635  0.00  0.00    +0.026 HD
ENDBRANCH  12  14
BRANCH  12  18
ATOM     18  O   UNL     1      20.271  55.179  29.839  0.00  0.00    -0.387 OA
ATOM     19  H   UNL     1      20.956  54.728  30.362  0.00  0.00    +0.210 HD
ENDBRANCH  12  18
ENDBRANCH   1  12
TORSDOF 3
ENDMDL
MODEL 3
REMARK minimizedAffinity -5.7446599
REMARK minimizedRMSD -1
REMARK  Name = 
REMARK  3 active torsions:
REMARK  status: ('A' for Active; 'I' for Inactive)
REMARK    1  A    between atoms: C_1  and  C_2
REMARK    2  A    between atoms: C_2  and  O_3
REMARK    3  A    between atoms: C_2  and  C_4
REMARK                            x       y       z     vdW  Elec       q    Type
REMARK                         _______ _______ _______ _____ _____    ______ ____
ROOT
ATOM      1  C   UNL     1      21.989  54.053  28.624  0.00  0.00    -0.019 A 
ATOM      2  C   UNL     1      21.438  54.604  27.459  0.00  0.00    -0.056 A 
ATOM      3  C   UNL     1      20.368  55.499  27.535  0.00  0.00    -0.061 A 
ATOM      4  C   UNL     1      19.839  55.853  28.774  0.00  0.00    -0.062 A 
ATOM      5  C   UNL     1      20.377  55.313  29.939  0.00  0.00    -0.061 A 
ATOM      6  C   UNL     1      21.446  54.420  29.866  0.00  0.00    -0.056 A 
ATOM      7  H   UNL     1      21.837  54.342  26.482  0.00  0.00    +0.062 HD
ATOM      8  H   UNL     1      19.948  55.922  26.625  0.00  0.00    +0.062 HD
ATOM      9  H   UNL     1      19.007  56.550  28.831  0.00  0.00    +0.062 HD
ATOM     10  H   UNL     1      19.966  55.590  30.908  0.00  0.00    +0.062 HD
ATOM     11  H   UNL     1      21.857  54.005  30.785  0.00  0.00    +0.062 HD
ENDROOT
BRANCH   1  12
ATOM     12  C   UNL     1      23.147  53.083  28.537  0.00  0.00    +0.077 C 
ATOM     13  H   UNL     1      23.288  52.585  29.503  0.00  0.00    +0.064 HD
BRANCH  12  14
ATOM     14  C   UNL     1      22.945  52.021  27.464  0.00  0.00    -0.035 C 
ATOM     15  H   UNL     1      22.895  52.465  26.463  0.00  0.00    +0.026 HD
ATOM     16  H   UNL     1      23.791  51.326  27.453  0.00  0.00    +0.026 HD
ATOM     17  H   UNL     1      22.026  51.450  27.634  0.00  0.00    +0.026 HD
ENDBRANCH  12  14
BRANCH  12  18
ATOM     18  O   UNL     1      24.358  53.787  28.264  0.00  0.00    -0.387 OA
ATOM     19  H   UNL     1      24.273  54.667  28.672  0.00  0.00    +0.210 HD
ENDBRANCH  12  18
ENDBRANCH   1  12
TORSDOF 3
ENDMDL
MODEL 4
REMARK minimizedAffinity -5.71783352
REMARK minimizedRMSD -1
REMARK  Name = 
REMARK  3 active torsions:
REMARK  status: ('A' for Active; 'I' for Inactive)
REMARK    1  A    between atoms: C_1  and  C_2
REMARK    2  A    between atoms: C_2  and  O_3
REMARK    3  A    between atoms: C_2  and  C_4
REMARK                            x       y       z     vdW  Elec       q    Type
REMARK                         _______ _______ _______ _____ _____    ______ ____
ROOT
ATOM      1  C   UNL     1      22.068  54.079  27.991  0.00  0.00    -0.019 A 
ATOM      2  C   UNL     1      21.057  54.745  27.284  0.00  0.00    -0.056 A 
ATOM      3  C   UNL     1      20.094  55.497  27.962  0.00  0.00    -0.061 A 
ATOM      4  C   UNL     1      20.132  55.591  29.351  0.00  0.00    -0.062 A 
ATOM      5  C   UNL     1      21.131  54.935  30.066  0.00  0.00    -0.061 A 
ATOM      6  C   UNL     1      22.094  54.184  29.391  0.00  0.00    -0.056 A 
ATOM      7  H   UNL     1      21.011  54.685  26.199  0.00  0.00    +0.062 HD
ATOM      8  H   UNL     1      19.315  56.010  27.404  0.00  0.00    +0.062 HD
ATOM      9  H   UNL     1      19.383  56.177  29.877  0.00  0.00    +0.062 HD
ATOM     10  H   UNL     1      21.162  55.009  31.151  0.00  0.00    +0.062 HD
ATOM     11  H   UNL     1      22.869  53.676  29.963  0.00  0.00    +0.062 HD
ENDROOT
BRANCH   1  12
ATOM     12  C   UNL     1      23.107  53.264  27.253  0.00  0.00    +0.077 C 
ATOM     13  H   UNL     1      24.109  53.523  27.617  0.00  0.00    +0.064 HD
BRANCH  12  14
ATOM     14  C   UNL     1      22.901  51.764  27.411  0.00  0.00    -0.035 C 
ATOM     15  H   UNL     1      21.950  51.440  26.972  0.00  0.00    +0.026 HD
ATOM     16  H   UNL     1      23.688  51.214  26.885  0.00  0.00    +0.026 HD
ATOM     17  H   UNL     1      22.913  51.467  28.465  0.00  0.00    +0.026 HD
ENDBRANCH  12  14
BRANCH  12  18
ATOM     18  O   UNL     1      23.087  53.587  25.863  0.00  0.00    -0.387 OA
ATOM     19  H   UNL     1      22.817  54.519  25.791  0.00  0.00    +0.210 HD
ENDBRANCH  12  18
ENDBRANCH   1  12
TORSDOF 3
ENDMDL
MODEL 5
REMARK minimizedAffinity -5.71555471
REMARK minimizedRMSD -1
REMARK  Name = 
REMARK  3 active torsions:
REMARK  status: ('A' for Active; 'I' for Inactive)
REMARK    1  A    between atoms: C_1  and  C_2
REMARK    2  A    between atoms: C_2  and  O_3
REMARK    3  A    between atoms: C_2  and  C_4
REMARK                            x       y       z     vdW  Elec       q    Type
REMARK                         _______ _______ _______ _____ _____    ______ ____
ROOT
ATOM      1  C   UNL     1      22.058  54.089  27.982  0.00  0.00    -0.019 A 
ATOM      2  C   UNL     1      22.093  54.190  29.379  0.00  0.00    -0.056 A 
ATOM      3  C   UNL     1      21.135  54.944  30.061  0.00  0.00    -0.061 A 
ATOM      4  C   UNL     1      20.133  55.604  29.354  0.00  0.00    -0.062 A 
ATOM      5  C   UNL     1      20.087  55.513  27.965  0.00  0.00    -0.061 A 
ATOM      6  C   UNL     1      21.042  54.760  27.282  0.00  0.00    -0.056 A 
ATOM      7  H   UNL     1      22.866  53.680  29.951  0.00  0.00    +0.062 HD
ATOM      8  H   UNL     1      21.170  55.014  31.145  0.00  0.00    +0.062 HD
ATOM      9  H   UNL     1      19.387  56.190  29.885  0.00  0.00    +0.062 HD
ATOM     10  H   UNL     1      19.304  56.027  27.411  0.00  0.00    +0.062 HD
ATOM     11  H   UNL     1      20.994  54.697  26.196  0.00  0.00    +0.062 HD
ENDROOT
BRANCH   1  12
ATOM     12  C   UNL     1      23.099  53.272  27.249  0.00  0.00    +0.077 C 
ATOM     13  H   UNL     1      24.099  53.526  27.619  0.00  0.00    +0.064 HD
BRANCH  12  14
ATOM     14  C   UNL     1      22.887  51.772  27.404  0.00  0.00    -0.035 C 
ATOM     15  H   UNL     1      21.937  51.452  26.958  0.00  0.00    +0.026 HD
ATOM     16  H   UNL     1      23.675  51.220  26.882  0.00  0.00    +0.026 HD
ATOM     17  H   UNL     1      22.891  51.474  28.457  0.00  0.00    +0.026 HD
ENDBRANCH  12  14
BRANCH  12  18
ATOM     18  O   UNL     1      23.089  53.597  25.859  0.00  0.00    -0.387 OA
ATOM     19  H   UNL     1      22.823  54.530  25.787  0.00  0.00    +0.210 HD
ENDBRANCH  12  18
ENDBRANCH   1  12
TORSDOF 3
ENDMDL
MODEL 6
REMARK minimizedAffinity -5.39548969
REMARK minimizedRMSD -1
REMARK  Name = 
REMARK  3 active torsions:
REMARK  status: ('A' for Active; 'I' for Inactive)
REMARK    1  A    between atoms: C_1  and  C_2
REMARK    2  A    between atoms: C_2  and  O_3
REMARK    3  A    between atoms: C_2  and  C_4
REMARK                            x       y       z     vdW  Elec       q    Type
REMARK                         _______ _______ _______ _____ _____    ______ ____
ROOT
ATOM      1  C   UNL     1      22.108  53.944  27.998  0.00  0.00    -0.019 A 
ATOM      2  C   UNL     1      21.043  54.582  27.347  0.00  0.00    -0.056 A 
ATOM      3  C   UNL     1      20.125  55.347  28.071  0.00  0.00    -0.061 A 
ATOM      4  C   UNL     1      20.261  55.482  29.450  0.00  0.00    -0.062 A 
ATOM      5  C   UNL     1      21.314  54.853  30.110  0.00  0.00    -0.061 A 
ATOM      6  C   UNL     1      22.233  54.089  29.389  0.00  0.00    -0.056 A 
ATOM      7  H   UNL     1      20.920  54.491  26.271  0.00  0.00    +0.062 HD
ATOM      8  H   UNL     1      19.303  55.839  27.556  0.00  0.00    +0.062 HD
ATOM      9  H   UNL     1      19.546  56.078  30.012  0.00  0.00    +0.062 HD
ATOM     10  H   UNL     1      21.422  54.958  31.187  0.00  0.00    +0.062 HD
ATOM     11  H   UNL     1      23.051  53.603  29.918  0.00  0.00    +0.062 HD
ENDROOT
BRANCH   1  12
ATOM     12  C   UNL     1      23.099  53.115  27.210  0.00  0.00    +0.077 C 
ATOM     13  H   UNL     1      22.828  52.054  27.273  0.00  0.00    +0.064 HD
BRANCH  12  14
ATOM     14  C   UNL     1      23.167  53.517  25.743  0.00  0.00    -0.035 C 
ATOM     15  H   UNL     1      23.528  54.546  25.624  0.00  0.00    +0.026 HD
ATOM     16  H   UNL     1      23.873  52.877  25.206  0.00  0.00    +0.026 HD
ATOM     17  H   UNL     1      22.187  53.439  25.260  0.00  0.00    +0.026 HD
ENDBRANCH  12  14
BRANCH  12  18
ATOM     18  O   UNL     1      24.401  53.234  27.781  0.00  0.00    -0.387 OA
ATOM     19  H   UNL     1      24.281  53.373  28.736  0.00  0.00    +0.210 HD
ENDBRANCH  12  18
ENDBRANCH   1  12
TORSDOF 3
ENDMDL
MODEL 7
REMARK minimizedAffinity -4.04914999
REMARK minimizedRMSD -1
REMARK  Name = 
REMARK  3 active torsions:
REMARK  status: ('A' for Active; 'I' for Inactive)
REMARK    1  A    between atoms: C_1  and  C_2
REMARK    2  A    between atoms: C_2  and  O_3
REMARK    3  A    between atoms: C_2  and  C_4
REMARK                            x       y       z     vdW  Elec       q    Type
REMARK                         _______ _______ _______ _____ _____    ______ ____
ROOT
ATOM      1  C   UNL     1      24.442  53.868  28.377  0.00  0.00    -0.019 A 
ATOM      2  C   UNL     1      23.665  54.947  28.820  0.00  0.00    -0.056 A 
ATOM      3  C   UNL     1      22.334  55.076  28.417  0.00  0.00    -0.061 A 
ATOM      4  C   UNL     1      21.765  54.129  27.569  0.00  0.00    -0.062 A 
ATOM      5  C   UNL     1      22.525  53.051  27.122  0.00  0.00    -0.061 A 
ATOM      6  C   UNL     1      23.855  52.920  27.523  0.00  0.00    -0.056 A 
ATOM      7  H   UNL     1      24.089  55.697  29.484  0.00  0.00    +0.062 HD
ATOM      8  H   UNL     1      21.740  55.917  28.767  0.00  0.00    +0.062 HD
ATOM      9  H   UNL     1      20.729  54.230  27.257  0.00  0.00    +0.062 HD
ATOM     10  H   UNL     1      22.083  52.309  26.460  0.00  0.00    +0.062 HD
ATOM     11  H   UNL     1      24.438  52.073  27.166  0.00  0.00    +0.062 HD
ENDROOT
BRANCH   1  12
ATOM     12  C   UNL     1      25.884  53.734  28.815  0.00  0.00    +0.077 C 
ATOM     13  H   UNL     1      26.436  54.645  28.558  0.00  0.00    +0.064 HD
BRANCH  12  14
ATOM     14  C   UNL     1      26.023  53.482  30.310  0.00  0.00    -0.035 C 
ATOM     15  H   UNL     1      25.569  52.528  30.602  0.00  0.00    +0.026 HD
ATOM     16  H   UNL     1      27.081  53.419  30.588  0.00  0.00    +0.026 HD
ATOM     17  H   UNL     1      25.556  54.280  30.897  0.00  0.00    +0.026 HD
ENDBRANCH  12  14
BRANCH  12  18
ATOM     18  O   UNL     1      26.514  52.666  28.108  0.00  0.00    -0.387 OA
ATOM     19  H   UNL     1      26.091  52.616  27.234  0.00  0.00    +0.210 HD
ENDBRANCH  12  18
ENDBRANCH   1  12
TORSDOF 3
ENDMDL
MODEL 8
REMARK minimizedAffinity -4.043993
REMARK minimizedRMSD -1
REMARK  Name = 
REMARK  3 active torsions:
REMARK  status: ('A' for Active; 'I' for Inactive)
REMARK    1  A    between atoms: C_1  and  C_2
REMARK    2  A    between atoms: C_2  and  O_3
REMARK    3  A    between atoms: C_2  and  C_4
REMARK                            x       y       z     vdW  Elec       q    Type
REMARK                         _______ _______ _______ _____ _____    ______ ____
ROOT
ATOM      1  C   UNL     1      24.441  53.884  28.380  0.00  0.00    -0.019 A 
ATOM      2  C   UNL     1      23.852  52.921  27.550  0.00  0.00    -0.056 A 
ATOM      3  C   UNL     1      22.519  53.049  27.149  0.00  0.00    -0.061 A 
ATOM      4  C   UNL     1      21.764  54.140  27.572  0.00  0.00    -0.062 A 
ATOM      5  C   UNL     1      22.338  55.104  28.398  0.00  0.00    -0.061 A 
ATOM      6  C   UNL     1      23.668  54.979  28.798  0.00  0.00    -0.056 A 
ATOM      7  H   UNL     1      24.424  52.063  27.206  0.00  0.00    +0.062 HD
ATOM      8  H   UNL     1      22.072  52.297  26.504  0.00  0.00    +0.062 HD
ATOM      9  H   UNL     1      20.728  54.239  27.259  0.00  0.00    +0.062 HD
ATOM     10  H   UNL     1      21.749  55.958  28.728  0.00  0.00    +0.062 HD
ATOM     11  H   UNL     1      24.103  55.740  29.444  0.00  0.00    +0.062 HD
ENDROOT
BRANCH   1  12
ATOM     12  C   UNL     1      25.884  53.740  28.812  0.00  0.00    +0.077 C 
ATOM     13  H   UNL     1      26.440  54.650  28.560  0.00  0.00    +0.064 HD
BRANCH  12  14
ATOM     14  C   UNL     1      26.027  53.477  30.305  0.00  0.00    -0.035 C 
ATOM     15  H   UNL     1      25.568  52.523  30.592  0.00  0.00    +0.026 HD
ATOM     16  H   UNL     1      27.085  53.406  30.579  0.00  0.00    +0.026 HD
ATOM     17  H   UNL     1      25.566  54.273  30.899  0.00  0.00    +0.026 HD
ENDBRANCH  12  14
BRANCH  12  18
ATOM     18  O   UNL     1      26.506  52.674  28.096  0.00  0.00    -0.387 OA
ATOM     19  H   UNL     1      26.080  52.631  27.223  0.00  0.00    +0.210 HD
ENDBRANCH  12  18
ENDBRANCH   1  12
TORSDOF 3
ENDMDL
MODEL 9
REMARK minimizedAffinity -3.20166564
REMARK minimizedRMSD -1
REMARK  Name = 
REMARK  3 active torsions:
REMARK  status: ('A' for Active; 'I' for Inactive)
REMARK    1  A    between atoms: C_1  and  C_2
REMARK    2  A    between atoms: C_2  and  O_3
REMARK    3  A    between atoms: C_2  and  C_4
REMARK                            x       y       z     vdW  Elec       q    Type
REMARK                         _______ _______ _______ _____ _____    ______ ____
ROOT
ATOM      1  C   UNL     1      22.346  53.653  27.755  0.00  0.00    -0.019 A 
ATOM      2  C   UNL     1      23.620  54.172  28.021  0.00  0.00    -0.056 A 
ATOM      3  C   UNL     1      23.765  55.437  28.596  0.00  0.00    -0.061 A 
ATOM      4  C   UNL     1      22.640  56.195  28.911  0.00  0.00    -0.062 A 
ATOM      5  C   UNL     1      21.368  55.691  28.651  0.00  0.00    -0.061 A 
ATOM      6  C   UNL     1      21.220  54.428  28.077  0.00  0.00    -0.056 A 
ATOM      7  H   UNL     1      24.512  53.595  27.785  0.00  0.00    +0.062 HD
ATOM      8  H   UNL     1      24.759  55.829  28.800  0.00  0.00    +0.062 HD
ATOM      9  H   UNL     1      22.754  57.178  29.359  0.00  0.00    +0.062 HD
ATOM     10  H   UNL     1      20.488  56.281  28.897  0.00  0.00    +0.062 HD
ATOM     11  H   UNL     1      20.220  54.047  27.880  0.00  0.00    +0.062 HD
ENDROOT
BRANCH   1  12
ATOM     12  C   UNL     1      22.194  52.283  27.130  0.00  0.00    +0.077 C 
ATOM     13  H   UNL     1      21.181  51.903  27.310  0.00  0.00    +0.064 HD
BRANCH  12  14
ATOM     14  C   UNL     1      22.455  52.288  25.630  0.00  0.00    -0.035 C 
ATOM     15  H   UNL     1      23.491  52.569  25.403  0.00  0.00    +0.026 HD
ATOM     16  H   UNL     1      22.309  51.285  25.215  0.00  0.00    +0.026 HD
ATOM     17  H   UNL     1      21.788  52.982  25.109  0.00  0.00    +0.026 HD
ENDBRANCH  12  14
BRANCH  12  18
ATOM     18  O   UNL     1      23.088  51.360  27.750  0.00  0.00    -0.387 OA
ATOM     19  H   UNL     1      23.199  51.647  28.673  0.00  0.00    +0.210 HD
ENDBRANCH  12  18
ENDBRANCH   1  12
TORSDOF 3
ENDMDL
