MODEL 1
REMARK minimizedAffinity -6.2981596
REMARK minimizedRMSD -1
REMARK  Name = 
REMARK  3 active torsions:
REMARK  status: ('A' for Active; 'I' for Inactive)
REMARK    1  A    between atoms: C_1  and  C_2
REMARK    2  A    between atoms: C_2  and  O_3
REMARK    3  A    between atoms: C_2  and  C_4
REMARK                            x       y       z     vdW  Elec       q    Type
REMARK                         _______ _______ _______ _____ _____    ______ ____
ROOT
ATOM      1  C   UNL     1      21.671  54.968  28.276  0.00  0.00    -0.019 A 
ATOM      2  C   UNL     1      20.406  55.197  27.717  0.00  0.00    -0.056 A 
ATOM      3  C   UNL     1      19.750  56.414  27.919  0.00  0.00    -0.061 A 
ATOM      4  C   UNL     1      20.351  57.414  28.680  0.00  0.00    -0.062 A 
ATOM      5  C   UNL     1      21.607  57.200  29.242  0.00  0.00    -0.061 A 
ATOM      6  C   UNL     1      22.264  55.985  29.041  0.00  0.00    -0.056 A 
ATOM      7  H   UNL     1      19.920  54.430  27.117  0.00  0.00    +0.062 HD
ATOM      8  H   UNL     1      18.770  56.581  27.479  0.00  0.00    +0.062 HD
ATOM      9  H   UNL     1      19.840  58.360  28.836  0.00  0.00    +0.062 HD
ATOM     10  H   UNL     1      22.078  57.980  29.836  0.00  0.00    +0.062 HD
ATOM     11  H   UNL     1      23.246  55.832  29.486  0.00  0.00    +0.062 HD
ENDROOT
BRANCH   1  12
ATOM     12  C   UNL     1      22.376  53.648  28.056  0.00  0.00    +0.077 C 
ATOM     13  H   UNL     1      21.663  52.823  28.168  0.00  0.00    +0.064 HD
BRANCH  12  14
ATOM     14  C   UNL     1      23.025  53.550  26.682  0.00  0.00    -0.035 C 
ATOM     15  H   UNL     1      23.817  54.297  26.557  0.00  0.00    +0.026 HD
ATOM     16  H   UNL     1      23.499  52.571  26.554  0.00  0.00    +0.026 HD
ATOM     17  H   UNL     1      22.291  53.689  25.881  0.00  0.00    +0.026 HD
ENDBRANCH  12  14
BRANCH  12  18
ATOM     18  O   UNL     1      23.378  53.455  29.053  0.00  0.00    -0.387 OA
ATOM     19  H   UNL     1      23.067  53.901  29.859  0.00  0.00    +0.210 HD
ENDBRANCH  12  18
ENDBRANCH   1  12
TORSDOF 3
ENDMDL
MODEL 2
REMARK minimizedAffinity -6.28285074
REMARK minimizedRMSD -1
REMARK  Name = 
REMARK  3 active torsions:
REMARK  status: ('A' for Active; 'I' for Inactive)
REMARK    1  A    between atoms: C_1  and  C_2
REMARK    2  A    between atoms: C_2  and  O_3
REMARK    3  A    between atoms: C_2  and  C_4
REMARK                            x       y       z     vdW  Elec       q    Type
REMARK                         _______ _______ _______ _____ _____    ______ ____
ROOT
ATOM      1  C   UNL     1      21.708  54.963  28.312  0.00  0.00    -0.019 A 
ATOM      2  C   UNL     1      22.264  55.997  29.078  0.00  0.00    -0.056 A 
ATOM      3  C   UNL     1      21.582  57.205  29.241  0.00  0.00    -0.061 A 
ATOM      4  C   UNL     1      20.338  57.392  28.642  0.00  0.00    -0.062 A 
ATOM      5  C   UNL     1      19.774  56.373  27.878  0.00  0.00    -0.061 A 
ATOM      6  C   UNL     1      20.453  55.165  27.715  0.00  0.00    -0.056 A 
ATOM      7  H   UNL     1      23.233  55.870  29.556  0.00  0.00    +0.062 HD
ATOM      8  H   UNL     1      22.022  58.000  29.838  0.00  0.00    +0.062 HD
ATOM      9  H   UNL     1      19.808  58.332  28.770  0.00  0.00    +0.062 HD
ATOM     10  H   UNL     1      18.803  56.517  27.411  0.00  0.00    +0.062 HD
ATOM     11  H   UNL     1      20.001  54.377  27.115  0.00  0.00    +0.062 HD
ENDROOT
BRANCH   1  12
ATOM     12  C   UNL     1      22.452  53.657  28.137  0.00  0.00    +0.077 C 
ATOM     13  H   UNL     1      21.786  52.817  28.368  0.00  0.00    +0.064 HD
BRANCH  12  14
ATOM     14  C   UNL     1      22.998  53.475  26.728  0.00  0.00    -0.035 C 
ATOM     15  H   UNL     1      23.745  54.240  26.484  0.00  0.00    +0.026 HD
ATOM     16  H   UNL     1      23.504  52.508  26.638  0.00  0.00    +0.026 HD
ATOM     17  H   UNL     1      22.200  53.522  25.979  0.00  0.00    +0.026 HD
ENDBRANCH  12  14
BRANCH  12  18
ATOM     18  O   UNL     1      23.534  53.581  29.064  0.00  0.00    -0.387 OA
ATOM     19  H   UNL     1      23.266  54.077  29.856  0.00  0.00    +0.210 HD
ENDBRANCH  12  18
ENDBRANCH   1  12
TORSDOF 3
ENDMDL
MODEL 3
REMARK minimizedAffinity -5.58757639
REMARK minimizedRMSD -1
REMARK  Name = 
REMARK  3 active torsions:
REMARK  status: ('A' for Active; 'I' for Inactive)
REMARK    1  A    between atoms: C_1  and  C_2
REMARK    2  A    between atoms: C_2  and  O_3
REMARK    3  A    between atoms: C_2  and  C_4
REMARK                            x       y       z     vdW  Elec       q    Type
REMARK                         _______ _______ _______ _____ _____    ______ ____
ROOT
ATOM      1  C   UNL     1      22.065  54.713  28.299  0.00  0.00    -0.019 A 
ATOM      2  C   UNL     1      21.934  53.846  27.206  0.00  0.00    -0.056 A 
ATOM      3  C   UNL     1      23.001  53.033  26.813  0.00  0.00    -0.061 A 
ATOM      4  C   UNL     1      24.207  53.078  27.508  0.00  0.00    -0.062 A 
ATOM      5  C   UNL     1      24.351  53.936  28.596  0.00  0.00    -0.061 A 
ATOM      6  C   UNL     1      23.287  54.748  28.990  0.00  0.00    -0.056 A 
ATOM      7  H   UNL     1      21.000  53.793  26.651  0.00  0.00    +0.062 HD
ATOM      8  H   UNL     1      22.888  52.362  25.964  0.00  0.00    +0.062 HD
ATOM      9  H   UNL     1      25.036  52.445  27.202  0.00  0.00    +0.062 HD
ATOM     10  H   UNL     1      25.292  53.972  29.140  0.00  0.00    +0.062 HD
ATOM     11  H   UNL     1      23.413  55.414  29.842  0.00  0.00    +0.062 HD
ENDROOT
BRANCH   1  12
ATOM     12  C   UNL     1      20.908  55.592  28.719  0.00  0.00    +0.077 C 
ATOM     13  H   UNL     1      21.280  56.580  29.016  0.00  0.00    +0.064 HD
BRANCH  12  14
ATOM     14  C   UNL     1      19.873  55.771  27.616  0.00  0.00    -0.035 C 
ATOM     15  H   UNL     1      19.399  54.818  27.351  0.00  0.00    +0.026 HD
ATOM     16  H   UNL     1      19.069  56.433  27.952  0.00  0.00    +0.026 HD
ATOM     17  H   UNL     1      20.321  56.196  26.712  0.00  0.00    +0.026 HD
ENDBRANCH  12  14
BRANCH  12  18
ATOM     18  O   UNL     1      20.265  55.041  29.868  0.00  0.00    -0.387 OA
ATOM     19  H   UNL     1      20.948  54.574  30.379  0.00  0.00    +0.210 HD
ENDBRANCH  12  18
ENDBRANCH   1  12
TORSDOF 3
ENDMDL
MODEL 4
REMARK minimizedAffinity -5.58062077
REMARK minimizedRMSD -1
REMARK  Name = 
REMARK  3 active torsions:
REMARK  status: ('A' for Active; 'I' for Inactive)
REMARK    1  A    between atoms: C_1  and  C_2
REMARK    2  A    between atoms: C_2  and  O_3
REMARK    3  A    between atoms: C_2  and  C_4
REMARK                            x       y       z     vdW  Elec       q    Type
REMARK                         _______ _______ _______ _____ _____    ______ ____
ROOT
ATOM      1  C   UNL     1      22.060  54.709  28.289  0.00  0.00    -0.019 A 
ATOM      2  C   UNL     1      23.274  54.747  28.988  0.00  0.00    -0.056 A 
ATOM      3  C   UNL     1      24.343  53.936  28.600  0.00  0.00    -0.061 A 
ATOM      4  C   UNL     1      24.210  53.079  27.509  0.00  0.00    -0.062 A 
ATOM      5  C   UNL     1      23.009  53.031  26.806  0.00  0.00    -0.061 A 
ATOM      6  C   UNL     1      21.941  53.841  27.192  0.00  0.00    -0.056 A 
ATOM      7  H   UNL     1      23.400  55.410  29.841  0.00  0.00    +0.062 HD
ATOM      8  H   UNL     1      25.281  53.974  29.148  0.00  0.00    +0.062 HD
ATOM      9  H   UNL     1      25.042  52.449  27.207  0.00  0.00    +0.062 HD
ATOM     10  H   UNL     1      22.903  52.364  25.953  0.00  0.00    +0.062 HD
ATOM     11  H   UNL     1      21.007  53.794  26.633  0.00  0.00    +0.062 HD
ENDROOT
BRANCH   1  12
ATOM     12  C   UNL     1      20.906  55.589  28.716  0.00  0.00    +0.077 C 
ATOM     13  H   UNL     1      21.281  56.576  29.013  0.00  0.00    +0.064 HD
BRANCH  12  14
ATOM     14  C   UNL     1      19.868  55.771  27.616  0.00  0.00    -0.035 C 
ATOM     15  H   UNL     1      19.391  54.820  27.351  0.00  0.00    +0.026 HD
ATOM     16  H   UNL     1      19.066  56.434  27.957  0.00  0.00    +0.026 HD
ATOM     17  H   UNL     1      20.313  56.197  26.711  0.00  0.00    +0.026 HD
ENDBRANCH  12  14
BRANCH  12  18
ATOM     18  O   UNL     1      20.266  55.036  29.865  0.00  0.00    -0.387 OA
ATOM     19  H   UNL     1      20.950  54.567  30.373  0.00  0.00    +0.210 HD
ENDBRANCH  12  18
ENDBRANCH   1  12
TORSDOF 3
ENDMDL
MODEL 5
REMARK minimizedAffinity -4.70246935
REMARK minimizedRMSD -1
REMARK  Name = 
REMARK  3 active torsions:
REMARK  status: ('A' for Active; 'I' for Inactive)
REMARK    1  A    between atoms: C_1  and  C_2
REMARK    2  A    between atoms: C_2  and  O_3
REMARK    3  A    between atoms: C_2  and  C_4
REMARK                            x       y       z     vdW  Elec       q    Type
REMARK                         _______ _______ _______ _____ _____    ______ ____
ROOT
ATOM      1  C   UNL     1      21.745  55.300  28.878  0.00  0.00    -0.019 A 
ATOM      2  C   UNL     1      21.840  53.949  29.238  0.00  0.00    -0.056 A 
ATOM      3  C   UNL     1      23.084  53.314  29.290  0.00  0.00    -0.061 A 
ATOM      4  C   UNL     1      24.243  54.022  28.984  0.00  0.00    -0.062 A 
ATOM      5  C   UNL     1      24.163  55.366  28.625  0.00  0.00    -0.061 A 
ATOM      6  C   UNL     1      22.922  56.001  28.573  0.00  0.00    -0.056 A 
ATOM      7  H   UNL     1      20.947  53.378  29.483  0.00  0.00    +0.062 HD
ATOM      8  H   UNL     1      23.146  52.266  29.572  0.00  0.00    +0.062 HD
ATOM      9  H   UNL     1      25.210  53.528  29.026  0.00  0.00    +0.062 HD
ATOM     10  H   UNL     1      25.067  55.921  28.387  0.00  0.00    +0.062 HD
ATOM     11  H   UNL     1      22.874  57.052  28.290  0.00  0.00    +0.062 HD
ENDROOT
BRANCH   1  12
ATOM     12  C   UNL     1      20.395  55.982  28.821  0.00  0.00    +0.077 C 
ATOM     13  H   UNL     1      19.871  55.848  29.775  0.00  0.00    +0.064 HD
BRANCH  12  14
ATOM     14  C   UNL     1      20.501  57.472  28.526  0.00  0.00    -0.035 C 
ATOM     15  H   UNL     1      20.932  57.657  27.535  0.00  0.00    +0.026 HD
ATOM     16  H   UNL     1      19.507  57.930  28.521  0.00  0.00    +0.026 HD
ATOM     17  H   UNL     1      21.118  57.985  29.271  0.00  0.00    +0.026 HD
ENDBRANCH  12  14
BRANCH  12  18
ATOM     18  O   UNL     1      19.579  55.372  27.822  0.00  0.00    -0.387 OA
ATOM     19  H   UNL     1      19.838  54.436  27.775  0.00  0.00    +0.210 HD
ENDBRANCH  12  18
ENDBRANCH   1  12
TORSDOF 3
ENDMDL
MODEL 6
REMARK minimizedAffinity -4.54163361
REMARK minimizedRMSD -1
REMARK  Name = 
REMARK  3 active torsions:
REMARK  status: ('A' for Active; 'I' for Inactive)
REMARK    1  A    between atoms: C_1  and  C_2
REMARK    2  A    between atoms: C_2  and  O_3
REMARK    3  A    between atoms: C_2  and  C_4
REMARK                            x       y       z     vdW  Elec       q    Type
REMARK                         _______ _______ _______ _____ _____    ______ ____
ROOT
ATOM      1  C   UNL     1      21.199  55.485  28.398  0.00  0.00    -0.019 A 
ATOM      2  C   UNL     1      21.474  55.097  29.717  0.00  0.00    -0.056 A 
ATOM      3  C   UNL     1      22.234  53.954  29.977  0.00  0.00    -0.061 A 
ATOM      4  C   UNL     1      22.728  53.189  28.923  0.00  0.00    -0.062 A 
ATOM      5  C   UNL     1      22.462  53.563  27.608  0.00  0.00    -0.061 A 
ATOM      6  C   UNL     1      21.704  54.704  27.346  0.00  0.00    -0.056 A 
ATOM      7  H   UNL     1      21.099  55.682  30.554  0.00  0.00    +0.062 HD
ATOM      8  H   UNL     1      22.442  53.663  31.003  0.00  0.00    +0.062 HD
ATOM      9  H   UNL     1      23.320  52.300  29.126  0.00  0.00    +0.062 HD
ATOM     10  H   UNL     1      22.848  52.967  26.783  0.00  0.00    +0.062 HD
ATOM     11  H   UNL     1      21.504  54.985  26.313  0.00  0.00    +0.062 HD
ENDROOT
BRANCH   1  12
ATOM     12  C   UNL     1      20.374  56.723  28.123  0.00  0.00    +0.077 C 
ATOM     13  H   UNL     1      21.021  57.526  27.751  0.00  0.00    +0.064 HD
BRANCH  12  14
ATOM     14  C   UNL     1      19.267  56.478  27.106  0.00  0.00    -0.035 C 
ATOM     15  H   UNL     1      18.535  55.749  27.475  0.00  0.00    +0.026 HD
ATOM     16  H   UNL     1      18.713  57.403  26.916  0.00  0.00    +0.026 HD
ATOM     17  H   UNL     1      19.669  56.110  26.156  0.00  0.00    +0.026 HD
ENDBRANCH  12  14
BRANCH  12  18
ATOM     18  O   UNL     1      19.789  57.202  29.333  0.00  0.00    -0.387 OA
ATOM     19  H   UNL     1      20.400  56.974  30.054  0.00  0.00    +0.210 HD
ENDBRANCH  12  18
ENDBRANCH   1  12
TORSDOF 3
ENDMDL
MODEL 7
REMARK minimizedAffinity -4.31060266
REMARK minimizedRMSD -1
REMARK  Name = 
REMARK  3 active torsions:
REMARK  status: ('A' for Active; 'I' for Inactive)
REMARK    1  A    between atoms: C_1  and  C_2
REMARK    2  A    between atoms: C_2  and  O_3
REMARK    3  A    between atoms: C_2  and  C_4
REMARK                            x       y       z     vdW  Elec       q    Type
REMARK                         _______ _______ _______ _____ _____    ______ ____
ROOT
ATOM      1  C   UNL     1      28.553  51.046  24.080  0.00  0.00    -0.019 A 
ATOM      2  C   UNL     1      28.216  52.373  23.778  0.00  0.00    -0.056 A 
ATOM      3  C   UNL     1      27.572  52.687  22.579  0.00  0.00    -0.061 A 
ATOM      4  C   UNL     1      27.258  51.679  21.670  0.00  0.00    -0.062 A 
ATOM      5  C   UNL     1      27.587  50.356  21.957  0.00  0.00    -0.061 A 
ATOM      6  C   UNL     1      28.230  50.041  23.154  0.00  0.00    -0.056 A 
ATOM      7  H   UNL     1      28.451  53.174  24.475  0.00  0.00    +0.062 HD
ATOM      8  H   UNL     1      27.314  53.719  22.355  0.00  0.00    +0.062 HD
ATOM      9  H   UNL     1      26.756  51.924  20.737  0.00  0.00    +0.062 HD
ATOM     10  H   UNL     1      27.342  49.568  21.248  0.00  0.00    +0.062 HD
ATOM     11  H   UNL     1      28.481  49.003  23.366  0.00  0.00    +0.062 HD
ENDROOT
BRANCH   1  12
ATOM     12  C   UNL     1      29.252  50.712  25.380  0.00  0.00    +0.077 C 
ATOM     13  H   UNL     1      30.328  50.595  25.203  0.00  0.00    +0.064 HD
BRANCH  12  14
ATOM     14  C   UNL     1      29.044  51.775  26.450  0.00  0.00    -0.035 C 
ATOM     15  H   UNL     1      27.987  51.861  26.732  0.00  0.00    +0.026 HD
ATOM     16  H   UNL     1      29.587  51.508  27.362  0.00  0.00    +0.026 HD
ATOM     17  H   UNL     1      29.391  52.757  26.112  0.00  0.00    +0.026 HD
ENDBRANCH  12  14
BRANCH  12  18
ATOM     18  O   UNL     1      28.786  49.459  25.879  0.00  0.00    -0.387 OA
ATOM     19  H   UNL     1      28.549  48.915  25.107  0.00  0.00    +0.210 HD
ENDBRANCH  12  18
ENDBRANCH   1  12
TORSDOF 3
ENDMDL
MODEL 8
REMARK minimizedAffinity -4.01637983
REMARK minimizedRMSD -1
REMARK  Name = 
REMARK  3 active torsions:
REMARK  status: ('A' for Active; 'I' for Inactive)
REMARK    1  A    between atoms: C_1  and  C_2
REMARK    2  A    between atoms: C_2  and  O_3
REMARK    3  A    between atoms: C_2  and  C_4
REMARK                            x       y       z     vdW  Elec       q    Type
REMARK                         _______ _______ _______ _____ _____    ______ ____
ROOT
ATOM      1  C   UNL     1      22.763  54.398  28.115  0.00  0.00    -0.019 A 
ATOM      2  C   UNL     1      22.735  54.006  26.770  0.00  0.00    -0.056 A 
ATOM      3  C   UNL     1      22.758  52.652  26.425  0.00  0.00    -0.061 A 
ATOM      4  C   UNL     1      22.807  51.678  27.419  0.00  0.00    -0.062 A 
ATOM      5  C   UNL     1      22.835  52.054  28.760  0.00  0.00    -0.061 A 
ATOM      6  C   UNL     1      22.812  53.405  29.107  0.00  0.00    -0.056 A 
ATOM      7  H   UNL     1      22.695  54.751  25.979  0.00  0.00    +0.062 HD
ATOM      8  H   UNL     1      22.735  52.359  25.378  0.00  0.00    +0.062 HD
ATOM      9  H   UNL     1      22.824  50.625  27.149  0.00  0.00    +0.062 HD
ATOM     10  H   UNL     1      22.872  51.294  29.537  0.00  0.00    +0.062 HD
ATOM     11  H   UNL     1      22.834  53.684  30.159  0.00  0.00    +0.062 HD
ENDROOT
BRANCH   1  12
ATOM     12  C   UNL     1      22.740  55.865  28.484  0.00  0.00    +0.077 C 
ATOM     13  H   UNL     1      22.538  56.469  27.592  0.00  0.00    +0.064 HD
BRANCH  12  14
ATOM     14  C   UNL     1      21.694  56.190  29.542  0.00  0.00    -0.035 C 
ATOM     15  H   UNL     1      21.909  55.682  30.490  0.00  0.00    +0.026 HD
ATOM     16  H   UNL     1      21.693  57.263  29.759  0.00  0.00    +0.026 HD
ATOM     17  H   UNL     1      20.690  55.899  29.215  0.00  0.00    +0.026 HD
ENDBRANCH  12  14
BRANCH  12  18
ATOM     18  O   UNL     1      24.021  56.270  28.965  0.00  0.00    -0.387 OA
ATOM     19  H   UNL     1      24.683  55.723  28.507  0.00  0.00    +0.210 HD
ENDBRANCH  12  18
ENDBRANCH   1  12
TORSDOF 3
ENDMDL
MODEL 9
REMARK minimizedAffinity -3.8477962
REMARK minimizedRMSD -1
REMARK  Name = 
REMARK  3 active torsions:
REMARK  status: ('A' for Active; 'I' for Inactive)
REMARK    1  A    between atoms: C_1  and  C_2
REMARK    2  A    between atoms: C_2  and  O_3
REMARK    3  A    between atoms: C_2  and  C_4
REMARK                            x       y       z     vdW  Elec       q    Type
REMARK                         _______ _______ _______ _____ _____    ______ ____
ROOT
ATOM      1  C   UNL     1      24.447  53.866  28.379  0.00  0.00    -0.019 A 
ATOM      2  C   UNL     1      23.869  52.887  27.559  0.00  0.00    -0.056 A 
ATOM      3  C   UNL     1      22.538  52.999  27.151  0.00  0.00    -0.061 A 
ATOM      4  C   UNL     1      21.772  54.090  27.556  0.00  0.00    -0.062 A 
ATOM      5  C   UNL     1      22.334  55.070  28.370  0.00  0.00    -0.061 A 
ATOM      6  C   UNL     1      23.663  54.960  28.779  0.00  0.00    -0.056 A 
ATOM      7  H   UNL     1      24.450  52.029  27.230  0.00  0.00    +0.062 HD
ATOM      8  H   UNL     1      22.099  52.234  26.514  0.00  0.00    +0.062 HD
ATOM      9  H   UNL     1      20.736  54.176  27.237  0.00  0.00    +0.062 HD
ATOM     10  H   UNL     1      21.737  55.923  28.687  0.00  0.00    +0.062 HD
ATOM     11  H   UNL     1      24.090  55.734  29.415  0.00  0.00    +0.062 HD
ENDROOT
BRANCH   1  12
ATOM     12  C   UNL     1      25.889  53.739  28.820  0.00  0.00    +0.077 C 
ATOM     13  H   UNL     1      26.436  54.656  28.569  0.00  0.00    +0.064 HD
BRANCH  12  14
ATOM     14  C   UNL     1      26.027  53.480  30.314  0.00  0.00    -0.035 C 
ATOM     15  H   UNL     1      25.577  52.522  30.600  0.00  0.00    +0.026 HD
ATOM     16  H   UNL     1      27.084  53.422  30.594  0.00  0.00    +0.026 HD
ATOM     17  H   UNL     1      25.553  54.272  30.903  0.00  0.00    +0.026 HD
ENDBRANCH  12  14
BRANCH  12  18
ATOM     18  O   UNL     1      26.528  52.680  28.109  0.00  0.00    -0.387 OA
ATOM     19  H   UNL     1      26.108  52.631  27.233  0.00  0.00    +0.210 HD
ENDBRANCH  12  18
ENDBRANCH   1  12
TORSDOF 3
ENDMDL
