MODEL 1
REMARK minimizedAffinity -6.1945715
REMARK minimizedRMSD -1
REMARK  Name = 
REMARK  3 active torsions:
REMARK  status: ('A' for Active; 'I' for Inactive)
REMARK    1  A    between atoms: C_1  and  C_2
REMARK    2  A    between atoms: C_2  and  O_3
REMARK    3  A    between atoms: C_2  and  C_4
REMARK                            x       y       z     vdW  Elec       q    Type
REMARK                         _______ _______ _______ _____ _____    ______ ____
ROOT
ATOM      1  C   UNL     1      21.963  55.098  28.326  0.00  0.00    -0.019 A 
ATOM      2  C   UNL     1      22.244  56.269  29.043  0.00  0.00    -0.056 A 
ATOM      3  C   UNL     1      21.276  57.264  29.187  0.00  0.00    -0.061 A 
ATOM      4  C   UNL     1      20.016  57.101  28.616  0.00  0.00    -0.062 A 
ATOM      5  C   UNL     1      19.722  55.943  27.899  0.00  0.00    -0.061 A 
ATOM      6  C   UNL     1      20.690  54.947  27.755  0.00  0.00    -0.056 A 
ATOM      7  H   UNL     1      23.223  56.417  29.496  0.00  0.00    +0.062 HD
ATOM      8  H   UNL     1      21.505  58.168  29.745  0.00  0.00    +0.062 HD
ATOM      9  H   UNL     1      19.263  57.877  28.728  0.00  0.00    +0.062 HD
ATOM     10  H   UNL     1      18.740  55.814  27.451  0.00  0.00    +0.062 HD
ATOM     11  H   UNL     1      20.446  54.047  27.192  0.00  0.00    +0.062 HD
ENDROOT
BRANCH   1  12
ATOM     12  C   UNL     1      23.017  54.022  28.174  0.00  0.00    +0.077 C 
ATOM     13  H   UNL     1      24.001  54.429  28.436  0.00  0.00    +0.064 HD
BRANCH  12  14
ATOM     14  C   UNL     1      23.079  53.456  26.762  0.00  0.00    -0.035 C 
ATOM     15  H   UNL     1      22.146  52.951  26.489  0.00  0.00    +0.026 HD
ATOM     16  H   UNL     1      23.872  52.703  26.691  0.00  0.00    +0.026 HD
ATOM     17  H   UNL     1      23.277  54.241  26.025  0.00  0.00    +0.026 HD
ENDBRANCH  12  14
BRANCH  12  18
ATOM     18  O   UNL     1      22.762  52.956  29.086  0.00  0.00    -0.387 OA
ATOM     19  H   UNL     1      22.338  53.347  29.869  0.00  0.00    +0.210 HD
ENDBRANCH  12  18
ENDBRANCH   1  12
TORSDOF 3
ENDMDL
MODEL 2
REMARK minimizedAffinity -6.18899012
REMARK minimizedRMSD -1
REMARK  Name = 
REMARK  3 active torsions:
REMARK  status: ('A' for Active; 'I' for Inactive)
REMARK    1  A    between atoms: C_1  and  C_2
REMARK    2  A    between atoms: C_2  and  O_3
REMARK    3  A    between atoms: C_2  and  C_4
REMARK                            x       y       z     vdW  Elec       q    Type
REMARK                         _______ _______ _______ _____ _____    ______ ____
ROOT
ATOM      1  C   UNL     1      21.969  55.102  28.332  0.00  0.00    -0.019 A 
ATOM      2  C   UNL     1      20.700  54.942  27.756  0.00  0.00    -0.056 A 
ATOM      3  C   UNL     1      19.729  55.935  27.890  0.00  0.00    -0.061 A 
ATOM      4  C   UNL     1      20.013  57.099  28.602  0.00  0.00    -0.062 A 
ATOM      5  C   UNL     1      21.269  57.271  29.180  0.00  0.00    -0.061 A 
ATOM      6  C   UNL     1      22.241  56.279  29.046  0.00  0.00    -0.056 A 
ATOM      7  H   UNL     1      20.458  54.040  27.197  0.00  0.00    +0.062 HD
ATOM      8  H   UNL     1      18.749  55.801  27.440  0.00  0.00    +0.062 HD
ATOM      9  H   UNL     1      19.255  57.872  28.707  0.00  0.00    +0.062 HD
ATOM     10  H   UNL     1      21.491  58.178  29.737  0.00  0.00    +0.062 HD
ATOM     11  H   UNL     1      23.218  56.427  29.503  0.00  0.00    +0.062 HD
ENDROOT
BRANCH   1  12
ATOM     12  C   UNL     1      23.018  54.022  28.181  0.00  0.00    +0.077 C 
ATOM     13  H   UNL     1      24.004  54.423  28.446  0.00  0.00    +0.064 HD
BRANCH  12  14
ATOM     14  C   UNL     1      23.081  53.458  26.768  0.00  0.00    -0.035 C 
ATOM     15  H   UNL     1      22.146  52.958  26.492  0.00  0.00    +0.026 HD
ATOM     16  H   UNL     1      23.870  52.701  26.698  0.00  0.00    +0.026 HD
ATOM     17  H   UNL     1      23.284  54.243  26.033  0.00  0.00    +0.026 HD
ENDBRANCH  12  14
BRANCH  12  18
ATOM     18  O   UNL     1      22.757  52.955  29.091  0.00  0.00    -0.387 OA
ATOM     19  H   UNL     1      22.333  53.346  29.874  0.00  0.00    +0.210 HD
ENDBRANCH  12  18
ENDBRANCH   1  12
TORSDOF 3
ENDMDL
MODEL 3
REMARK minimizedAffinity -5.94059229
REMARK minimizedRMSD -1
REMARK  Name = 
REMARK  3 active torsions:
REMARK  status: ('A' for Active; 'I' for Inactive)
REMARK    1  A    between atoms: C_1  and  C_2
REMARK    2  A    between atoms: C_2  and  O_3
REMARK    3  A    between atoms: C_2  and  C_4
REMARK                            x       y       z     vdW  Elec       q    Type
REMARK                         _______ _______ _______ _____ _____    ______ ____
ROOT
ATOM      1  C   UNL     1      21.872  54.979  28.378  0.00  0.00    -0.019 A 
ATOM      2  C   UNL     1      20.700  55.004  27.610  0.00  0.00    -0.056 A 
ATOM      3  C   UNL     1      19.841  56.103  27.661  0.00  0.00    -0.061 A 
ATOM      4  C   UNL     1      20.142  57.189  28.480  0.00  0.00    -0.062 A 
ATOM      5  C   UNL     1      21.304  57.177  29.250  0.00  0.00    -0.061 A 
ATOM      6  C   UNL     1      22.164  56.079  29.200  0.00  0.00    -0.056 A 
ATOM      7  H   UNL     1      20.445  54.166  26.964  0.00  0.00    +0.062 HD
ATOM      8  H   UNL     1      18.934  56.112  27.061  0.00  0.00    +0.062 HD
ATOM      9  H   UNL     1      19.472  58.044  28.520  0.00  0.00    +0.062 HD
ATOM     10  H   UNL     1      21.539  58.023  29.892  0.00  0.00    +0.062 HD
ATOM     11  H   UNL     1      23.068  56.084  29.807  0.00  0.00    +0.062 HD
ENDROOT
BRANCH   1  12
ATOM     12  C   UNL     1      22.801  53.785  28.317  0.00  0.00    +0.077 C 
ATOM     13  H   UNL     1      22.501  53.044  29.067  0.00  0.00    +0.064 HD
BRANCH  12  14
ATOM     14  C   UNL     1      24.257  54.161  28.555  0.00  0.00    -0.035 C 
ATOM     15  H   UNL     1      24.634  54.828  27.771  0.00  0.00    +0.026 HD
ATOM     16  H   UNL     1      24.888  53.266  28.529  0.00  0.00    +0.026 HD
ATOM     17  H   UNL     1      24.391  54.654  29.523  0.00  0.00    +0.026 HD
ENDBRANCH  12  14
BRANCH  12  18
ATOM     18  O   UNL     1      22.692  53.145  27.048  0.00  0.00    -0.387 OA
ATOM     19  H   UNL     1      21.779  53.277  26.740  0.00  0.00    +0.210 HD
ENDBRANCH  12  18
ENDBRANCH   1  12
TORSDOF 3
ENDMDL
MODEL 4
REMARK minimizedAffinity -5.60432482
REMARK minimizedRMSD -1
REMARK  Name = 
REMARK  3 active torsions:
REMARK  status: ('A' for Active; 'I' for Inactive)
REMARK    1  A    between atoms: C_1  and  C_2
REMARK    2  A    between atoms: C_2  and  O_3
REMARK    3  A    between atoms: C_2  and  C_4
REMARK                            x       y       z     vdW  Elec       q    Type
REMARK                         _______ _______ _______ _____ _____    ______ ____
ROOT
ATOM      1  C   UNL     1      22.159  54.968  28.426  0.00  0.00    -0.019 A 
ATOM      2  C   UNL     1      21.800  54.042  27.436  0.00  0.00    -0.056 A 
ATOM      3  C   UNL     1      22.717  53.090  26.989  0.00  0.00    -0.061 A 
ATOM      4  C   UNL     1      24.003  53.052  27.523  0.00  0.00    -0.062 A 
ATOM      5  C   UNL     1      24.374  53.968  28.506  0.00  0.00    -0.061 A 
ATOM      6  C   UNL     1      23.458  54.920  28.955  0.00  0.00    -0.056 A 
ATOM      7  H   UNL     1      20.801  54.054  27.005  0.00  0.00    +0.062 HD
ATOM      8  H   UNL     1      22.429  52.376  26.221  0.00  0.00    +0.062 HD
ATOM      9  H   UNL     1      24.717  52.311  27.173  0.00  0.00    +0.062 HD
ATOM     10  H   UNL     1      25.378  53.941  28.923  0.00  0.00    +0.062 HD
ATOM     11  H   UNL     1      23.761  55.629  29.724  0.00  0.00    +0.062 HD
ENDROOT
BRANCH   1  12
ATOM     12  C   UNL     1      21.159  55.997  28.908  0.00  0.00    +0.077 C 
ATOM     13  H   UNL     1      20.688  55.650  29.835  0.00  0.00    +0.064 HD
BRANCH  12  14
ATOM     14  C   UNL     1      20.071  56.284  27.882  0.00  0.00    -0.035 C 
ATOM     15  H   UNL     1      20.484  56.726  26.969  0.00  0.00    +0.026 HD
ATOM     16  H   UNL     1      19.356  57.011  28.282  0.00  0.00    +0.026 HD
ATOM     17  H   UNL     1      19.527  55.373  27.611  0.00  0.00    +0.026 HD
ENDBRANCH  12  14
BRANCH  12  18
ATOM     18  O   UNL     1      21.826  57.217  29.223  0.00  0.00    -0.387 OA
ATOM     19  H   UNL     1      22.719  56.983  29.531  0.00  0.00    +0.210 HD
ENDBRANCH  12  18
ENDBRANCH   1  12
TORSDOF 3
ENDMDL
MODEL 5
REMARK minimizedAffinity -5.60085249
REMARK minimizedRMSD -1
REMARK  Name = 
REMARK  3 active torsions:
REMARK  status: ('A' for Active; 'I' for Inactive)
REMARK    1  A    between atoms: C_1  and  C_2
REMARK    2  A    between atoms: C_2  and  O_3
REMARK    3  A    between atoms: C_2  and  C_4
REMARK                            x       y       z     vdW  Elec       q    Type
REMARK                         _______ _______ _______ _____ _____    ______ ____
ROOT
ATOM      1  C   UNL     1      22.159  54.976  28.434  0.00  0.00    -0.019 A 
ATOM      2  C   UNL     1      23.461  54.915  28.951  0.00  0.00    -0.056 A 
ATOM      3  C   UNL     1      24.362  53.951  28.495  0.00  0.00    -0.061 A 
ATOM      4  C   UNL     1      23.973  53.038  27.518  0.00  0.00    -0.062 A 
ATOM      5  C   UNL     1      22.682  53.086  26.995  0.00  0.00    -0.061 A 
ATOM      6  C   UNL     1      21.780  54.050  27.451  0.00  0.00    -0.056 A 
ATOM      7  H   UNL     1      23.785  55.618  29.716  0.00  0.00    +0.062 HD
ATOM      8  H   UNL     1      25.369  53.912  28.903  0.00  0.00    +0.062 HD
ATOM      9  H   UNL     1      24.675  52.287  27.164  0.00  0.00    +0.062 HD
ATOM     10  H   UNL     1      22.376  52.373  26.234  0.00  0.00    +0.062 HD
ATOM     11  H   UNL     1      20.775  54.077  27.034  0.00  0.00    +0.062 HD
ENDROOT
BRANCH   1  12
ATOM     12  C   UNL     1      21.188  56.025  28.933  0.00  0.00    +0.077 C 
ATOM     13  H   UNL     1      20.719  55.683  29.863  0.00  0.00    +0.064 HD
BRANCH  12  14
ATOM     14  C   UNL     1      20.096  56.341  27.920  0.00  0.00    -0.035 C 
ATOM     15  H   UNL     1      20.509  56.779  27.004  0.00  0.00    +0.026 HD
ATOM     16  H   UNL     1      19.402  57.082  28.331  0.00  0.00    +0.026 HD
ATOM     17  H   UNL     1      19.529  55.445  27.649  0.00  0.00    +0.026 HD
ENDBRANCH  12  14
BRANCH  12  18
ATOM     18  O   UNL     1      21.886  57.228  29.247  0.00  0.00    -0.387 OA
ATOM     19  H   UNL     1      22.776  56.972  29.544  0.00  0.00    +0.210 HD
ENDBRANCH  12  18
ENDBRANCH   1  12
TORSDOF 3
ENDMDL
MODEL 6
REMARK minimizedAffinity -4.24660301
REMARK minimizedRMSD -1
REMARK  Name = 
REMARK  3 active torsions:
REMARK  status: ('A' for Active; 'I' for Inactive)
REMARK    1  A    between atoms: C_1  and  C_2
REMARK    2  A    between atoms: C_2  and  O_3
REMARK    3  A    between atoms: C_2  and  C_4
REMARK                            x       y       z     vdW  Elec       q    Type
REMARK                         _______ _______ _______ _____ _____    ______ ____
ROOT
ATOM      1  C   UNL     1      28.601  50.969  24.036  0.00  0.00    -0.019 A 
ATOM      2  C   UNL     1      28.225  50.039  23.056  0.00  0.00    -0.056 A 
ATOM      3  C   UNL     1      27.545  50.453  21.909  0.00  0.00    -0.061 A 
ATOM      4  C   UNL     1      27.233  51.798  21.728  0.00  0.00    -0.062 A 
ATOM      5  C   UNL     1      27.600  52.733  22.694  0.00  0.00    -0.061 A 
ATOM      6  C   UNL     1      28.280  52.321  23.841  0.00  0.00    -0.056 A 
ATOM      7  H   UNL     1      28.458  48.983  23.178  0.00  0.00    +0.062 HD
ATOM      8  H   UNL     1      27.258  49.724  21.156  0.00  0.00    +0.062 HD
ATOM      9  H   UNL     1      26.703  52.119  20.835  0.00  0.00    +0.062 HD
ATOM     10  H   UNL     1      27.355  53.783  22.555  0.00  0.00    +0.062 HD
ATOM     11  H   UNL     1      28.561  53.063  24.587  0.00  0.00    +0.062 HD
ENDROOT
BRANCH   1  12
ATOM     12  C   UNL     1      29.340  50.515  25.277  0.00  0.00    +0.077 C 
ATOM     13  H   UNL     1      30.421  50.542  25.095  0.00  0.00    +0.064 HD
BRANCH  12  14
ATOM     14  C   UNL     1      28.950  49.108  25.710  0.00  0.00    -0.035 C 
ATOM     15  H   UNL     1      27.894  49.053  25.996  0.00  0.00    +0.026 HD
ATOM     16  H   UNL     1      29.526  48.811  26.593  0.00  0.00    +0.026 HD
ATOM     17  H   UNL     1      29.131  48.379  24.913  0.00  0.00    +0.026 HD
ENDBRANCH  12  14
BRANCH  12  18
ATOM     18  O   UNL     1      29.086  51.415  26.354  0.00  0.00    -0.387 OA
ATOM     19  H   UNL     1      28.949  52.295  25.963  0.00  0.00    +0.210 HD
ENDBRANCH  12  18
ENDBRANCH   1  12
TORSDOF 3
ENDMDL
MODEL 7
REMARK minimizedAffinity -4.00555038
REMARK minimizedRMSD -1
REMARK  Name = 
REMARK  3 active torsions:
REMARK  status: ('A' for Active; 'I' for Inactive)
REMARK    1  A    between atoms: C_1  and  C_2
REMARK    2  A    between atoms: C_2  and  O_3
REMARK    3  A    between atoms: C_2  and  C_4
REMARK                            x       y       z     vdW  Elec       q    Type
REMARK                         _______ _______ _______ _____ _____    ______ ____
ROOT
ATOM      1  C   UNL     1      27.992  51.150  22.659  0.00  0.00    -0.019 A 
ATOM      2  C   UNL     1      28.186  52.252  23.505  0.00  0.00    -0.056 A 
ATOM      3  C   UNL     1      28.693  52.077  24.794  0.00  0.00    -0.061 A 
ATOM      4  C   UNL     1      29.013  50.801  25.252  0.00  0.00    -0.062 A 
ATOM      5  C   UNL     1      28.825  49.697  24.423  0.00  0.00    -0.061 A 
ATOM      6  C   UNL     1      28.318  49.871  23.134  0.00  0.00    -0.056 A 
ATOM      7  H   UNL     1      27.941  53.257  23.167  0.00  0.00    +0.062 HD
ATOM      8  H   UNL     1      28.838  52.938  25.442  0.00  0.00    +0.062 HD
ATOM      9  H   UNL     1      29.407  50.666  26.256  0.00  0.00    +0.062 HD
ATOM     10  H   UNL     1      29.073  48.700  24.779  0.00  0.00    +0.062 HD
ATOM     11  H   UNL     1      28.177  48.999  22.496  0.00  0.00    +0.062 HD
ENDROOT
BRANCH   1  12
ATOM     12  C   UNL     1      27.443  51.347  21.263  0.00  0.00    +0.077 C 
ATOM     13  H   UNL     1      27.140  50.380  20.844  0.00  0.00    +0.064 HD
BRANCH  12  14
ATOM     14  C   UNL     1      28.450  51.995  20.322  0.00  0.00    -0.035 C 
ATOM     15  H   UNL     1      28.711  53.008  20.647  0.00  0.00    +0.026 HD
ATOM     16  H   UNL     1      28.021  52.093  19.318  0.00  0.00    +0.026 HD
ATOM     17  H   UNL     1      29.370  51.405  20.252  0.00  0.00    +0.026 HD
ENDBRANCH  12  14
BRANCH  12  18
ATOM     18  O   UNL     1      26.269  52.155  21.308  0.00  0.00    -0.387 OA
ATOM     19  H   UNL     1      25.835  51.979  22.160  0.00  0.00    +0.210 HD
ENDBRANCH  12  18
ENDBRANCH   1  12
TORSDOF 3
ENDMDL
MODEL 8
REMARK minimizedAffinity -3.98116302
REMARK minimizedRMSD -1
REMARK  Name = 
REMARK  3 active torsions:
REMARK  status: ('A' for Active; 'I' for Inactive)
REMARK    1  A    between atoms: C_1  and  C_2
REMARK    2  A    between atoms: C_2  and  O_3
REMARK    3  A    between atoms: C_2  and  C_4
REMARK                            x       y       z     vdW  Elec       q    Type
REMARK                         _______ _______ _______ _____ _____    ______ ____
ROOT
ATOM      1  C   UNL     1      28.368  51.526  23.396  0.00  0.00    -0.019 A 
ATOM      2  C   UNL     1      28.437  50.132  23.261  0.00  0.00    -0.056 A 
ATOM      3  C   UNL     1      28.742  49.327  24.359  0.00  0.00    -0.061 A 
ATOM      4  C   UNL     1      28.983  49.904  25.605  0.00  0.00    -0.062 A 
ATOM      5  C   UNL     1      28.918  51.288  25.753  0.00  0.00    -0.061 A 
ATOM      6  C   UNL     1      28.613  52.094  24.656  0.00  0.00    -0.056 A 
ATOM      7  H   UNL     1      28.254  49.661  22.297  0.00  0.00    +0.062 HD
ATOM      8  H   UNL     1      28.793  48.247  24.244  0.00  0.00    +0.062 HD
ATOM      9  H   UNL     1      29.221  49.276  26.459  0.00  0.00    +0.062 HD
ATOM     10  H   UNL     1      29.107  51.740  26.724  0.00  0.00    +0.062 HD
ATOM     11  H   UNL     1      28.566  53.174  24.786  0.00  0.00    +0.062 HD
ENDROOT
BRANCH   1  12
ATOM     12  C   UNL     1      28.035  52.394  22.201  0.00  0.00    +0.077 C 
ATOM     13  H   UNL     1      27.948  53.440  22.516  0.00  0.00    +0.064 HD
BRANCH  12  14
ATOM     14  C   UNL     1      26.740  51.978  21.517  0.00  0.00    -0.035 C 
ATOM     15  H   UNL     1      26.811  50.969  21.098  0.00  0.00    +0.026 HD
ATOM     16  H   UNL     1      26.524  52.648  20.677  0.00  0.00    +0.026 HD
ATOM     17  H   UNL     1      25.894  52.006  22.211  0.00  0.00    +0.026 HD
ENDBRANCH  12  14
BRANCH  12  18
ATOM     18  O   UNL     1      29.095  52.343  21.249  0.00  0.00    -0.387 OA
ATOM     19  H   UNL     1      29.919  52.209  21.747  0.00  0.00    +0.210 HD
ENDBRANCH  12  18
ENDBRANCH   1  12
TORSDOF 3
ENDMDL
MODEL 9
REMARK minimizedAffinity -3.91646862
REMARK minimizedRMSD -1
REMARK  Name = 
REMARK  3 active torsions:
REMARK  status: ('A' for Active; 'I' for Inactive)
REMARK    1  A    between atoms: C_1  and  C_2
REMARK    2  A    between atoms: C_2  and  O_3
REMARK    3  A    between atoms: C_2  and  C_4
REMARK                            x       y       z     vdW  Elec       q    Type
REMARK                         _______ _______ _______ _____ _____    ______ ____
ROOT
ATOM      1  C   UNL     1      24.487  53.811  28.523  0.00  0.00    -0.019 A 
ATOM      2  C   UNL     1      24.019  53.086  27.417  0.00  0.00    -0.056 A 
ATOM      3  C   UNL     1      22.688  53.193  27.011  0.00  0.00    -0.061 A 
ATOM      4  C   UNL     1      21.809  54.023  27.703  0.00  0.00    -0.062 A 
ATOM      5  C   UNL     1      22.261  54.748  28.804  0.00  0.00    -0.061 A 
ATOM      6  C   UNL     1      23.591  54.643  29.212  0.00  0.00    -0.056 A 
ATOM      7  H   UNL     1      24.688  52.431  26.863  0.00  0.00    +0.062 HD
ATOM      8  H   UNL     1      22.335  52.626  26.153  0.00  0.00    +0.062 HD
ATOM      9  H   UNL     1      20.773  54.105  27.386  0.00  0.00    +0.062 HD
ATOM     10  H   UNL     1      21.576  55.396  29.347  0.00  0.00    +0.062 HD
ATOM     11  H   UNL     1      23.931  55.216  30.073  0.00  0.00    +0.062 HD
ENDROOT
BRANCH   1  12
ATOM     12  C   UNL     1      25.932  53.692  28.958  0.00  0.00    +0.077 C 
ATOM     13  H   UNL     1      26.444  54.650  28.809  0.00  0.00    +0.064 HD
BRANCH  12  14
ATOM     14  C   UNL     1      26.686  52.609  28.198  0.00  0.00    -0.035 C 
ATOM     15  H   UNL     1      26.270  51.615  28.394  0.00  0.00    +0.026 HD
ATOM     16  H   UNL     1      27.732  52.577  28.525  0.00  0.00    +0.026 HD
ATOM     17  H   UNL     1      26.663  52.788  27.118  0.00  0.00    +0.026 HD
ENDBRANCH  12  14
BRANCH  12  18
ATOM     18  O   UNL     1      26.001  53.408  30.353  0.00  0.00    -0.387 OA
ATOM     19  H   UNL     1      25.229  53.829  30.768  0.00  0.00    +0.210 HD
ENDBRANCH  12  18
ENDBRANCH   1  12
TORSDOF 3
ENDMDL
