MODEL 1
REMARK minimizedAffinity -6.19191122
REMARK minimizedRMSD -1
REMARK  Name = 
REMARK  3 active torsions:
REMARK  status: ('A' for Active; 'I' for Inactive)
REMARK    1  A    between atoms: C_1  and  C_2
REMARK    2  A    between atoms: C_2  and  O_3
REMARK    3  A    between atoms: C_2  and  C_4
REMARK                            x       y       z     vdW  Elec       q    Type
REMARK                         _______ _______ _______ _____ _____    ______ ____
ROOT
ATOM      1  C   UNL     1      21.956  55.098  28.314  0.00  0.00    -0.019 A 
ATOM      2  C   UNL     1      20.693  54.952  27.723  0.00  0.00    -0.056 A 
ATOM      3  C   UNL     1      19.725  55.948  27.862  0.00  0.00    -0.061 A 
ATOM      4  C   UNL     1      20.009  57.102  28.591  0.00  0.00    -0.062 A 
ATOM      5  C   UNL     1      21.259  57.259  29.184  0.00  0.00    -0.061 A 
ATOM      6  C   UNL     1      22.228  56.264  29.046  0.00  0.00    -0.056 A 
ATOM      7  H   UNL     1      20.451  54.059  27.150  0.00  0.00    +0.062 HD
ATOM      8  H   UNL     1      18.748  55.826  27.401  0.00  0.00    +0.062 HD
ATOM      9  H   UNL     1      19.254  57.877  28.700  0.00  0.00    +0.062 HD
ATOM     10  H   UNL     1      21.482  58.158  29.755  0.00  0.00    +0.062 HD
ATOM     11  H   UNL     1      23.201  56.401  29.514  0.00  0.00    +0.062 HD
ENDROOT
BRANCH   1  12
ATOM     12  C   UNL     1      23.002  54.014  28.158  0.00  0.00    +0.077 C 
ATOM     13  H   UNL     1      23.995  54.423  28.375  0.00  0.00    +0.064 HD
BRANCH  12  14
ATOM     14  C   UNL     1      23.013  53.405  26.763  0.00  0.00    -0.035 C 
ATOM     15  H   UNL     1      22.069  52.896  26.537  0.00  0.00    +0.026 HD
ATOM     16  H   UNL     1      23.800  52.646  26.688  0.00  0.00    +0.026 HD
ATOM     17  H   UNL     1      23.188  54.165  25.996  0.00  0.00    +0.026 HD
ENDBRANCH  12  14
BRANCH  12  18
ATOM     18  O   UNL     1      22.774  52.977  29.112  0.00  0.00    -0.387 OA
ATOM     19  H   UNL     1      22.378  53.393  29.897  0.00  0.00    +0.210 HD
ENDBRANCH  12  18
ENDBRANCH   1  12
TORSDOF 3
ENDMDL
MODEL 2
REMARK minimizedAffinity -6.18983221
REMARK minimizedRMSD -1
REMARK  Name = 
REMARK  3 active torsions:
REMARK  status: ('A' for Active; 'I' for Inactive)
REMARK    1  A    between atoms: C_1  and  C_2
REMARK    2  A    between atoms: C_2  and  O_3
REMARK    3  A    between atoms: C_2  and  C_4
REMARK                            x       y       z     vdW  Elec       q    Type
REMARK                         _______ _______ _______ _____ _____    ______ ____
ROOT
ATOM      1  C   UNL     1      21.961  55.090  28.314  0.00  0.00    -0.019 A 
ATOM      2  C   UNL     1      22.254  56.252  29.043  0.00  0.00    -0.056 A 
ATOM      3  C   UNL     1      21.296  57.257  29.191  0.00  0.00    -0.061 A 
ATOM      4  C   UNL     1      20.036  57.113  28.612  0.00  0.00    -0.062 A 
ATOM      5  C   UNL     1      19.733  55.965  27.884  0.00  0.00    -0.061 A 
ATOM      6  C   UNL     1      20.689  54.959  27.736  0.00  0.00    -0.056 A 
ATOM      7  H   UNL     1      23.232  56.385  29.502  0.00  0.00    +0.062 HD
ATOM      8  H   UNL     1      21.533  58.155  29.757  0.00  0.00    +0.062 HD
ATOM      9  H   UNL     1      19.292  57.897  28.727  0.00  0.00    +0.062 HD
ATOM     10  H   UNL     1      18.751  55.851  27.431  0.00  0.00    +0.062 HD
ATOM     11  H   UNL     1      20.438  54.067  27.165  0.00  0.00    +0.062 HD
ENDROOT
BRANCH   1  12
ATOM     12  C   UNL     1      23.004  54.004  28.158  0.00  0.00    +0.077 C 
ATOM     13  H   UNL     1      23.998  54.409  28.383  0.00  0.00    +0.064 HD
BRANCH  12  14
ATOM     14  C   UNL     1      23.022  53.404  26.759  0.00  0.00    -0.035 C 
ATOM     15  H   UNL     1      22.079  52.899  26.525  0.00  0.00    +0.026 HD
ATOM     16  H   UNL     1      23.807  52.643  26.684  0.00  0.00    +0.026 HD
ATOM     17  H   UNL     1      23.204  54.168  25.998  0.00  0.00    +0.026 HD
ENDBRANCH  12  14
BRANCH  12  18
ATOM     18  O   UNL     1      22.768  52.962  29.103  0.00  0.00    -0.387 OA
ATOM     19  H   UNL     1      22.369  53.374  29.889  0.00  0.00    +0.210 HD
ENDBRANCH  12  18
ENDBRANCH   1  12
TORSDOF 3
ENDMDL
MODEL 3
REMARK minimizedAffinity -5.6083684
REMARK minimizedRMSD -1
REMARK  Name = 
REMARK  3 active torsions:
REMARK  status: ('A' for Active; 'I' for Inactive)
REMARK    1  A    between atoms: C_1  and  C_2
REMARK    2  A    between atoms: C_2  and  O_3
REMARK    3  A    between atoms: C_2  and  C_4
REMARK                            x       y       z     vdW  Elec       q    Type
REMARK                         _______ _______ _______ _____ _____    ______ ____
ROOT
ATOM      1  C   UNL     1      22.124  54.968  28.417  0.00  0.00    -0.019 A 
ATOM      2  C   UNL     1      21.781  54.039  27.423  0.00  0.00    -0.056 A 
ATOM      3  C   UNL     1      22.711  53.097  26.981  0.00  0.00    -0.061 A 
ATOM      4  C   UNL     1      23.994  53.071  27.526  0.00  0.00    -0.062 A 
ATOM      5  C   UNL     1      24.348  53.989  28.512  0.00  0.00    -0.061 A 
ATOM      6  C   UNL     1      23.419  54.931  28.955  0.00  0.00    -0.056 A 
ATOM      7  H   UNL     1      20.785  54.043  26.984  0.00  0.00    +0.062 HD
ATOM      8  H   UNL     1      22.436  52.381  26.210  0.00  0.00    +0.062 HD
ATOM      9  H   UNL     1      24.717  52.337  27.180  0.00  0.00    +0.062 HD
ATOM     10  H   UNL     1      25.349  53.971  28.938  0.00  0.00    +0.062 HD
ATOM     11  H   UNL     1      23.710  55.642  29.728  0.00  0.00    +0.062 HD
ENDROOT
BRANCH   1  12
ATOM     12  C   UNL     1      21.110  55.986  28.892  0.00  0.00    +0.077 C 
ATOM     13  H   UNL     1      20.639  55.637  29.817  0.00  0.00    +0.064 HD
BRANCH  12  14
ATOM     14  C   UNL     1      20.025  56.260  27.860  0.00  0.00    -0.035 C 
ATOM     15  H   UNL     1      20.438  56.705  26.948  0.00  0.00    +0.026 HD
ATOM     16  H   UNL     1      19.300  56.981  28.255  0.00  0.00    +0.026 HD
ATOM     17  H   UNL     1      19.492  55.344  27.587  0.00  0.00    +0.026 HD
ENDBRANCH  12  14
BRANCH  12  18
ATOM     18  O   UNL     1      21.764  57.214  29.209  0.00  0.00    -0.387 OA
ATOM     19  H   UNL     1      22.657  56.989  29.521  0.00  0.00    +0.210 HD
ENDBRANCH  12  18
ENDBRANCH   1  12
TORSDOF 3
ENDMDL
MODEL 4
REMARK minimizedAffinity -5.60299873
REMARK minimizedRMSD -1
REMARK  Name = 
REMARK  3 active torsions:
REMARK  status: ('A' for Active; 'I' for Inactive)
REMARK    1  A    between atoms: C_1  and  C_2
REMARK    2  A    between atoms: C_2  and  O_3
REMARK    3  A    between atoms: C_2  and  C_4
REMARK                            x       y       z     vdW  Elec       q    Type
REMARK                         _______ _______ _______ _____ _____    ______ ____
ROOT
ATOM      1  C   UNL     1      22.127  54.982  28.433  0.00  0.00    -0.019 A 
ATOM      2  C   UNL     1      23.433  54.950  28.943  0.00  0.00    -0.056 A 
ATOM      3  C   UNL     1      24.346  53.995  28.494  0.00  0.00    -0.061 A 
ATOM      4  C   UNL     1      23.966  53.062  27.531  0.00  0.00    -0.062 A 
ATOM      5  C   UNL     1      22.671  53.082  27.017  0.00  0.00    -0.061 A 
ATOM      6  C   UNL     1      21.757  54.036  27.465  0.00  0.00    -0.056 A 
ATOM      7  H   UNL     1      23.750  55.669  29.696  0.00  0.00    +0.062 HD
ATOM      8  H   UNL     1      25.357  53.977  28.895  0.00  0.00    +0.062 HD
ATOM      9  H   UNL     1      24.678  52.318  27.182  0.00  0.00    +0.062 HD
ATOM     10  H   UNL     1      22.372  52.353  26.267  0.00  0.00    +0.062 HD
ATOM     11  H   UNL     1      20.748  54.040  27.055  0.00  0.00    +0.062 HD
ENDROOT
BRANCH   1  12
ATOM     12  C   UNL     1      21.141  56.021  28.925  0.00  0.00    +0.077 C 
ATOM     13  H   UNL     1      20.674  55.679  29.855  0.00  0.00    +0.064 HD
BRANCH  12  14
ATOM     14  C   UNL     1      20.049  56.322  27.907  0.00  0.00    -0.035 C 
ATOM     15  H   UNL     1      20.461  56.761  26.992  0.00  0.00    +0.026 HD
ATOM     16  H   UNL     1      19.345  57.057  28.314  0.00  0.00    +0.026 HD
ATOM     17  H   UNL     1      19.493  55.419  27.639  0.00  0.00    +0.026 HD
ENDBRANCH  12  14
BRANCH  12  18
ATOM     18  O   UNL     1      21.825  57.234  29.237  0.00  0.00    -0.387 OA
ATOM     19  H   UNL     1      22.717  56.988  29.538  0.00  0.00    +0.210 HD
ENDBRANCH  12  18
ENDBRANCH   1  12
TORSDOF 3
ENDMDL
MODEL 5
REMARK minimizedAffinity -4.24554348
REMARK minimizedRMSD -1
REMARK  Name = 
REMARK  3 active torsions:
REMARK  status: ('A' for Active; 'I' for Inactive)
REMARK    1  A    between atoms: C_1  and  C_2
REMARK    2  A    between atoms: C_2  and  O_3
REMARK    3  A    between atoms: C_2  and  C_4
REMARK                            x       y       z     vdW  Elec       q    Type
REMARK                         _______ _______ _______ _____ _____    ______ ____
ROOT
ATOM      1  C   UNL     1      28.602  50.964  24.041  0.00  0.00    -0.019 A 
ATOM      2  C   UNL     1      28.225  50.033  23.063  0.00  0.00    -0.056 A 
ATOM      3  C   UNL     1      27.549  50.444  21.914  0.00  0.00    -0.061 A 
ATOM      4  C   UNL     1      27.240  51.791  21.728  0.00  0.00    -0.062 A 
ATOM      5  C   UNL     1      27.607  52.727  22.693  0.00  0.00    -0.061 A 
ATOM      6  C   UNL     1      28.284  52.317  23.842  0.00  0.00    -0.056 A 
ATOM      7  H   UNL     1      28.456  48.976  23.189  0.00  0.00    +0.062 HD
ATOM      8  H   UNL     1      27.260  49.714  21.161  0.00  0.00    +0.062 HD
ATOM      9  H   UNL     1      26.712  52.110  20.833  0.00  0.00    +0.062 HD
ATOM     10  H   UNL     1      27.366  53.778  22.550  0.00  0.00    +0.062 HD
ATOM     11  H   UNL     1      28.566  53.059  24.587  0.00  0.00    +0.062 HD
ENDROOT
BRANCH   1  12
ATOM     12  C   UNL     1      29.337  50.511  25.284  0.00  0.00    +0.077 C 
ATOM     13  H   UNL     1      30.418  50.542  25.108  0.00  0.00    +0.064 HD
BRANCH  12  14
ATOM     14  C   UNL     1      28.948  49.103  25.715  0.00  0.00    -0.035 C 
ATOM     15  H   UNL     1      27.891  49.045  25.997  0.00  0.00    +0.026 HD
ATOM     16  H   UNL     1      29.522  48.807  26.601  0.00  0.00    +0.026 HD
ATOM     17  H   UNL     1      29.134  48.376  24.920  0.00  0.00    +0.026 HD
ENDBRANCH  12  14
BRANCH  12  18
ATOM     18  O   UNL     1      29.076  51.410  26.361  0.00  0.00    -0.387 OA
ATOM     19  H   UNL     1      28.937  52.290  25.970  0.00  0.00    +0.210 HD
ENDBRANCH  12  18
ENDBRANCH   1  12
TORSDOF 3
ENDMDL
MODEL 6
REMARK minimizedAffinity -4.08129358
REMARK minimizedRMSD -1
REMARK  Name = 
REMARK  3 active torsions:
REMARK  status: ('A' for Active; 'I' for Inactive)
REMARK    1  A    between atoms: C_1  and  C_2
REMARK    2  A    between atoms: C_2  and  O_3
REMARK    3  A    between atoms: C_2  and  C_4
REMARK                            x       y       z     vdW  Elec       q    Type
REMARK                         _______ _______ _______ _____ _____    ______ ____
ROOT
ATOM      1  C   UNL     1      24.479  53.859  28.421  0.00  0.00    -0.019 A 
ATOM      2  C   UNL     1      23.695  54.933  28.865  0.00  0.00    -0.056 A 
ATOM      3  C   UNL     1      22.372  55.069  28.441  0.00  0.00    -0.061 A 
ATOM      4  C   UNL     1      21.817  54.132  27.570  0.00  0.00    -0.062 A 
ATOM      5  C   UNL     1      22.586  53.061  27.121  0.00  0.00    -0.061 A 
ATOM      6  C   UNL     1      23.909  52.924  27.543  0.00  0.00    -0.056 A 
ATOM      7  H   UNL     1      24.109  55.676  29.544  0.00  0.00    +0.062 HD
ATOM      8  H   UNL     1      21.772  55.906  28.790  0.00  0.00    +0.062 HD
ATOM      9  H   UNL     1      20.787  54.239  27.240  0.00  0.00    +0.062 HD
ATOM     10  H   UNL     1      22.155  52.330  26.440  0.00  0.00    +0.062 HD
ATOM     11  H   UNL     1      24.497  52.081  27.185  0.00  0.00    +0.062 HD
ENDROOT
BRANCH   1  12
ATOM     12  C   UNL     1      25.914  53.717  28.885  0.00  0.00    +0.077 C 
ATOM     13  H   UNL     1      26.443  54.667  28.747  0.00  0.00    +0.064 HD
BRANCH  12  14
ATOM     14  C   UNL     1      26.666  52.622  28.142  0.00  0.00    -0.035 C 
ATOM     15  H   UNL     1      26.229  51.634  28.330  0.00  0.00    +0.026 HD
ATOM     16  H   UNL     1      27.704  52.573  28.491  0.00  0.00    +0.026 HD
ATOM     17  H   UNL     1      26.668  52.799  27.063  0.00  0.00    +0.026 HD
ENDBRANCH  12  14
BRANCH  12  18
ATOM     18  O   UNL     1      25.949  53.434  30.283  0.00  0.00    -0.387 OA
ATOM     19  H   UNL     1      25.175  53.868  30.681  0.00  0.00    +0.210 HD
ENDBRANCH  12  18
ENDBRANCH   1  12
TORSDOF 3
ENDMDL
MODEL 7
REMARK minimizedAffinity -3.97376657
REMARK minimizedRMSD -1
REMARK  Name = 
REMARK  3 active torsions:
REMARK  status: ('A' for Active; 'I' for Inactive)
REMARK    1  A    between atoms: C_1  and  C_2
REMARK    2  A    between atoms: C_2  and  O_3
REMARK    3  A    between atoms: C_2  and  C_4
REMARK                            x       y       z     vdW  Elec       q    Type
REMARK                         _______ _______ _______ _____ _____    ______ ____
ROOT
ATOM      1  C   UNL     1      28.363  51.525  23.389  0.00  0.00    -0.019 A 
ATOM      2  C   UNL     1      28.431  50.131  23.254  0.00  0.00    -0.056 A 
ATOM      3  C   UNL     1      28.739  49.326  24.352  0.00  0.00    -0.061 A 
ATOM      4  C   UNL     1      28.981  49.904  25.597  0.00  0.00    -0.062 A 
ATOM      5  C   UNL     1      28.918  51.288  25.745  0.00  0.00    -0.061 A 
ATOM      6  C   UNL     1      28.611  52.094  24.648  0.00  0.00    -0.056 A 
ATOM      7  H   UNL     1      28.246  49.660  22.290  0.00  0.00    +0.062 HD
ATOM      8  H   UNL     1      28.790  48.246  24.237  0.00  0.00    +0.062 HD
ATOM      9  H   UNL     1      29.221  49.276  26.451  0.00  0.00    +0.062 HD
ATOM     10  H   UNL     1      29.108  51.741  26.715  0.00  0.00    +0.062 HD
ATOM     11  H   UNL     1      28.564  53.174  24.778  0.00  0.00    +0.062 HD
ENDROOT
BRANCH   1  12
ATOM     12  C   UNL     1      28.029  52.393  22.194  0.00  0.00    +0.077 C 
ATOM     13  H   UNL     1      27.945  53.439  22.507  0.00  0.00    +0.064 HD
BRANCH  12  14
ATOM     14  C   UNL     1      26.732  51.978  21.512  0.00  0.00    -0.035 C 
ATOM     15  H   UNL     1      26.802  50.968  21.093  0.00  0.00    +0.026 HD
ATOM     16  H   UNL     1      26.516  52.647  20.671  0.00  0.00    +0.026 HD
ATOM     17  H   UNL     1      25.888  52.007  22.207  0.00  0.00    +0.026 HD
ENDBRANCH  12  14
BRANCH  12  18
ATOM     18  O   UNL     1      29.088  52.339  21.240  0.00  0.00    -0.387 OA
ATOM     19  H   UNL     1      29.913  52.206  21.738  0.00  0.00    +0.210 HD
ENDBRANCH  12  18
ENDBRANCH   1  12
TORSDOF 3
ENDMDL
MODEL 8
REMARK minimizedAffinity -3.7466948
REMARK minimizedRMSD -1
REMARK  Name = 
REMARK  3 active torsions:
REMARK  status: ('A' for Active; 'I' for Inactive)
REMARK    1  A    between atoms: C_1  and  C_2
REMARK    2  A    between atoms: C_2  and  O_3
REMARK    3  A    between atoms: C_2  and  C_4
REMARK                            x       y       z     vdW  Elec       q    Type
REMARK                         _______ _______ _______ _____ _____    ______ ____
ROOT
ATOM      1  C   UNL     1      22.564  53.978  28.230  0.00  0.00    -0.019 A 
ATOM      2  C   UNL     1      21.595  53.576  29.160  0.00  0.00    -0.056 A 
ATOM      3  C   UNL     1      20.973  54.513  29.987  0.00  0.00    -0.061 A 
ATOM      4  C   UNL     1      21.312  55.862  29.893  0.00  0.00    -0.062 A 
ATOM      5  C   UNL     1      22.274  56.274  28.974  0.00  0.00    -0.061 A 
ATOM      6  C   UNL     1      22.897  55.339  28.147  0.00  0.00    -0.056 A 
ATOM      7  H   UNL     1      21.317  52.527  29.250  0.00  0.00    +0.062 HD
ATOM      8  H   UNL     1      20.223  54.192  30.706  0.00  0.00    +0.062 HD
ATOM      9  H   UNL     1      20.827  56.591  30.538  0.00  0.00    +0.062 HD
ATOM     10  H   UNL     1      22.541  57.327  28.901  0.00  0.00    +0.062 HD
ATOM     11  H   UNL     1      23.646  55.675  27.433  0.00  0.00    +0.062 HD
ENDROOT
BRANCH   1  12
ATOM     12  C   UNL     1      23.234  52.956  27.336  0.00  0.00    +0.077 C 
ATOM     13  H   UNL     1      24.255  52.768  27.688  0.00  0.00    +0.064 HD
BRANCH  12  14
ATOM     14  C   UNL     1      23.290  53.396  25.880  0.00  0.00    -0.035 C 
ATOM     15  H   UNL     1      22.287  53.503  25.452  0.00  0.00    +0.026 HD
ATOM     16  H   UNL     1      23.805  52.641  25.276  0.00  0.00    +0.026 HD
ATOM     17  H   UNL     1      23.816  54.349  25.770  0.00  0.00    +0.026 HD
ENDBRANCH  12  14
BRANCH  12  18
ATOM     18  O   UNL     1      22.543  51.710  27.414  0.00  0.00    -0.387 OA
ATOM     19  H   UNL     1      22.170  51.647  28.310  0.00  0.00    +0.210 HD
ENDBRANCH  12  18
ENDBRANCH   1  12
TORSDOF 3
ENDMDL
MODEL 9
REMARK minimizedAffinity -3.70993161
REMARK minimizedRMSD -1
REMARK  Name = 
REMARK  3 active torsions:
REMARK  status: ('A' for Active; 'I' for Inactive)
REMARK    1  A    between atoms: C_1  and  C_2
REMARK    2  A    between atoms: C_2  and  O_3
REMARK    3  A    between atoms: C_2  and  C_4
REMARK                            x       y       z     vdW  Elec       q    Type
REMARK                         _______ _______ _______ _____ _____    ______ ____
ROOT
ATOM      1  C   UNL     1      22.567  54.290  28.206  0.00  0.00    -0.019 A 
ATOM      2  C   UNL     1      22.572  53.991  26.836  0.00  0.00    -0.056 A 
ATOM      3  C   UNL     1      22.710  52.674  26.397  0.00  0.00    -0.061 A 
ATOM      4  C   UNL     1      22.844  51.639  27.322  0.00  0.00    -0.062 A 
ATOM      5  C   UNL     1      22.843  51.922  28.686  0.00  0.00    -0.061 A 
ATOM      6  C   UNL     1      22.705  53.240  29.126  0.00  0.00    -0.056 A 
ATOM      7  H   UNL     1      22.469  54.784  26.097  0.00  0.00    +0.062 HD
ATOM      8  H   UNL     1      22.713  52.452  25.333  0.00  0.00    +0.062 HD
ATOM      9  H   UNL     1      22.953  50.613  26.979  0.00  0.00    +0.062 HD
ATOM     10  H   UNL     1      22.949  51.117  29.409  0.00  0.00    +0.062 HD
ATOM     11  H   UNL     1      22.704  53.446  30.195  0.00  0.00    +0.062 HD
ENDROOT
BRANCH   1  12
ATOM     12  C   UNL     1      22.416  55.722  28.674  0.00  0.00    +0.077 C 
ATOM     13  H   UNL     1      21.831  56.292  27.944  0.00  0.00    +0.064 HD
BRANCH  12  14
ATOM     14  C   UNL     1      23.756  56.417  28.881  0.00  0.00    -0.035 C 
ATOM     15  H   UNL     1      24.340  55.939  29.675  0.00  0.00    +0.026 HD
ATOM     16  H   UNL     1      23.599  57.455  29.193  0.00  0.00    +0.026 HD
ATOM     17  H   UNL     1      24.353  56.414  27.964  0.00  0.00    +0.026 HD
ENDBRANCH  12  14
BRANCH  12  18
ATOM     18  O   UNL     1      21.685  55.761  29.899  0.00  0.00    -0.387 OA
ATOM     19  H   UNL     1      21.065  55.011  29.884  0.00  0.00    +0.210 HD
ENDBRANCH  12  18
ENDBRANCH   1  12
TORSDOF 3
ENDMDL
