MODEL 1
REMARK minimizedAffinity -5.29493618
REMARK minimizedRMSD -1
REMARK  Name = 
REMARK  3 active torsions:
REMARK  status: ('A' for Active; 'I' for Inactive)
REMARK    1  A    between atoms: C_1  and  C_2
REMARK    2  A    between atoms: C_2  and  O_3
REMARK    3  A    between atoms: C_2  and  C_4
REMARK                            x       y       z     vdW  Elec       q    Type
REMARK                         _______ _______ _______ _____ _____    ______ ____
ROOT
ATOM      1  C   UNL     1      20.624  54.449  28.038  0.00  0.00    -0.019 A 
ATOM      2  C   UNL     1      21.662  54.296  28.969  0.00  0.00    -0.056 A 
ATOM      3  C   UNL     1      22.948  53.955  28.548  0.00  0.00    -0.061 A 
ATOM      4  C   UNL     1      23.212  53.762  27.193  0.00  0.00    -0.062 A 
ATOM      5  C   UNL     1      22.190  53.909  26.258  0.00  0.00    -0.061 A 
ATOM      6  C   UNL     1      20.904  54.250  26.678  0.00  0.00    -0.056 A 
ATOM      7  H   UNL     1      21.476  54.442  30.032  0.00  0.00    +0.062 HD
ATOM      8  H   UNL     1      23.746  53.838  29.277  0.00  0.00    +0.062 HD
ATOM      9  H   UNL     1      24.214  53.495  26.866  0.00  0.00    +0.062 HD
ATOM     10  H   UNL     1      22.394  53.757  25.200  0.00  0.00    +0.062 HD
ATOM     11  H   UNL     1      20.114  54.363  25.936  0.00  0.00    +0.062 HD
ENDROOT
BRANCH   1  12
ATOM     12  C   UNL     1      19.231  54.820  28.502  0.00  0.00    +0.077 C 
ATOM     13  H   UNL     1      18.582  54.980  27.634  0.00  0.00    +0.064 HD
BRANCH  12  14
ATOM     14  C   UNL     1      19.215  56.073  29.367  0.00  0.00    -0.035 C 
ATOM     15  H   UNL     1      19.773  55.928  30.298  0.00  0.00    +0.026 HD
ATOM     16  H   UNL     1      18.187  56.319  29.657  0.00  0.00    +0.026 HD
ATOM     17  H   UNL     1      19.643  56.930  28.837  0.00  0.00    +0.026 HD
ENDBRANCH  12  14
BRANCH  12  18
ATOM     18  O   UNL     1      18.660  53.743  29.242  0.00  0.00    -0.387 OA
ATOM     19  H   UNL     1      19.027  52.919  28.877  0.00  0.00    +0.210 HD
ENDBRANCH  12  18
ENDBRANCH   1  12
TORSDOF 3
ENDMDL
MODEL 2
REMARK minimizedAffinity -5.29442358
REMARK minimizedRMSD -1
REMARK  Name = 
REMARK  3 active torsions:
REMARK  status: ('A' for Active; 'I' for Inactive)
REMARK    1  A    between atoms: C_1  and  C_2
REMARK    2  A    between atoms: C_2  and  O_3
REMARK    3  A    between atoms: C_2  and  C_4
REMARK                            x       y       z     vdW  Elec       q    Type
REMARK                         _______ _______ _______ _____ _____    ______ ____
ROOT
ATOM      1  C   UNL     1      20.617  54.449  28.053  0.00  0.00    -0.019 A 
ATOM      2  C   UNL     1      20.876  54.265  26.687  0.00  0.00    -0.056 A 
ATOM      3  C   UNL     1      22.157  53.927  26.247  0.00  0.00    -0.061 A 
ATOM      4  C   UNL     1      23.193  53.770  27.165  0.00  0.00    -0.062 A 
ATOM      5  C   UNL     1      22.951  53.952  28.524  0.00  0.00    -0.061 A 
ATOM      6  C   UNL     1      21.671  54.289  28.966  0.00  0.00    -0.056 A 
ATOM      7  H   UNL     1      20.081  54.383  25.953  0.00  0.00    +0.062 HD
ATOM      8  H   UNL     1      22.348  53.787  25.185  0.00  0.00    +0.062 HD
ATOM      9  H   UNL     1      24.191  53.508  26.820  0.00  0.00    +0.062 HD
ATOM     10  H   UNL     1      23.759  53.831  29.242  0.00  0.00    +0.062 HD
ATOM     11  H   UNL     1      21.495  54.427  30.032  0.00  0.00    +0.062 HD
ENDROOT
BRANCH   1  12
ATOM     12  C   UNL     1      19.226  54.814  28.524  0.00  0.00    +0.077 C 
ATOM     13  H   UNL     1      18.569  54.964  27.659  0.00  0.00    +0.064 HD
BRANCH  12  14
ATOM     14  C   UNL     1      19.207  56.073  29.379  0.00  0.00    -0.035 C 
ATOM     15  H   UNL     1      19.773  55.938  30.308  0.00  0.00    +0.026 HD
ATOM     16  H   UNL     1      18.180  56.314  29.675  0.00  0.00    +0.026 HD
ATOM     17  H   UNL     1      19.625  56.929  28.841  0.00  0.00    +0.026 HD
ENDBRANCH  12  14
BRANCH  12  18
ATOM     18  O   UNL     1      18.667  53.738  29.276  0.00  0.00    -0.387 OA
ATOM     19  H   UNL     1      19.037  52.915  28.914  0.00  0.00    +0.210 HD
ENDBRANCH  12  18
ENDBRANCH   1  12
TORSDOF 3
ENDMDL
MODEL 3
REMARK minimizedAffinity -5.23849058
REMARK minimizedRMSD -1
REMARK  Name = 
REMARK  3 active torsions:
REMARK  status: ('A' for Active; 'I' for Inactive)
REMARK    1  A    between atoms: C_1  and  C_2
REMARK    2  A    between atoms: C_2  and  O_3
REMARK    3  A    between atoms: C_2  and  C_4
REMARK                            x       y       z     vdW  Elec       q    Type
REMARK                         _______ _______ _______ _____ _____    ______ ____
ROOT
ATOM      1  C   UNL     1      20.887  54.369  27.477  0.00  0.00    -0.019 A 
ATOM      2  C   UNL     1      21.575  54.060  26.294  0.00  0.00    -0.056 A 
ATOM      3  C   UNL     1      22.913  53.668  26.333  0.00  0.00    -0.061 A 
ATOM      4  C   UNL     1      23.581  53.579  27.553  0.00  0.00    -0.062 A 
ATOM      5  C   UNL     1      22.911  53.885  28.736  0.00  0.00    -0.061 A 
ATOM      6  C   UNL     1      21.572  54.277  28.698  0.00  0.00    -0.056 A 
ATOM      7  H   UNL     1      21.072  54.123  25.331  0.00  0.00    +0.062 HD
ATOM      8  H   UNL     1      23.438  53.430  25.410  0.00  0.00    +0.062 HD
ATOM      9  H   UNL     1      24.624  53.274  27.582  0.00  0.00    +0.062 HD
ATOM     10  H   UNL     1      23.431  53.818  29.689  0.00  0.00    +0.062 HD
ATOM     11  H   UNL     1      21.060  54.513  29.630  0.00  0.00    +0.062 HD
ENDROOT
BRANCH   1  12
ATOM     12  C   UNL     1      19.435  54.794  27.427  0.00  0.00    +0.077 C 
ATOM     13  H   UNL     1      18.788  53.918  27.549  0.00  0.00    +0.064 HD
BRANCH  12  14
ATOM     14  C   UNL     1      19.072  55.495  26.125  0.00  0.00    -0.035 C 
ATOM     15  H   UNL     1      19.626  56.433  26.005  0.00  0.00    +0.026 HD
ATOM     16  H   UNL     1      18.009  55.760  26.122  0.00  0.00    +0.026 HD
ATOM     17  H   UNL     1      19.276  54.859  25.258  0.00  0.00    +0.026 HD
ENDBRANCH  12  14
BRANCH  12  18
ATOM     18  O   UNL     1      19.144  55.667  28.517  0.00  0.00    -0.387 OA
ATOM     19  H   UNL     1      19.722  55.405  29.254  0.00  0.00    +0.210 HD
ENDBRANCH  12  18
ENDBRANCH   1  12
TORSDOF 3
ENDMDL
MODEL 4
REMARK minimizedAffinity -5.10663271
REMARK minimizedRMSD -1
REMARK  Name = 
REMARK  3 active torsions:
REMARK  status: ('A' for Active; 'I' for Inactive)
REMARK    1  A    between atoms: C_1  and  C_2
REMARK    2  A    between atoms: C_2  and  O_3
REMARK    3  A    between atoms: C_2  and  C_4
REMARK                            x       y       z     vdW  Elec       q    Type
REMARK                         _______ _______ _______ _____ _____    ______ ____
ROOT
ATOM      1  C   UNL     1      21.938  54.241  27.915  0.00  0.00    -0.019 A 
ATOM      2  C   UNL     1      21.038  54.331  26.844  0.00  0.00    -0.056 A 
ATOM      3  C   UNL     1      19.676  54.530  27.076  0.00  0.00    -0.061 A 
ATOM      4  C   UNL     1      19.198  54.641  28.380  0.00  0.00    -0.062 A 
ATOM      5  C   UNL     1      20.081  54.552  29.454  0.00  0.00    -0.061 A 
ATOM      6  C   UNL     1      21.443  54.353  29.223  0.00  0.00    -0.056 A 
ATOM      7  H   UNL     1      21.391  54.246  25.817  0.00  0.00    +0.062 HD
ATOM      8  H   UNL     1      18.986  54.597  26.239  0.00  0.00    +0.062 HD
ATOM      9  H   UNL     1      18.137  54.795  28.560  0.00  0.00    +0.062 HD
ATOM     10  H   UNL     1      19.710  54.637  30.473  0.00  0.00    +0.062 HD
ATOM     11  H   UNL     1      22.122  54.286  30.072  0.00  0.00    +0.062 HD
ENDROOT
BRANCH   1  12
ATOM     12  C   UNL     1      23.414  54.026  27.656  0.00  0.00    +0.077 C 
ATOM     13  H   UNL     1      23.915  54.994  27.540  0.00  0.00    +0.064 HD
BRANCH  12  14
ATOM     14  C   UNL     1      23.676  53.185  26.413  0.00  0.00    -0.035 C 
ATOM     15  H   UNL     1      23.277  52.171  26.522  0.00  0.00    +0.026 HD
ATOM     16  H   UNL     1      24.754  53.078  26.250  0.00  0.00    +0.026 HD
ATOM     17  H   UNL     1      23.231  53.639  25.523  0.00  0.00    +0.026 HD
ENDBRANCH  12  14
BRANCH  12  18
ATOM     18  O   UNL     1      24.020  53.388  28.779  0.00  0.00    -0.387 OA
ATOM     19  H   UNL     1      23.532  53.679  29.569  0.00  0.00    +0.210 HD
ENDBRANCH  12  18
ENDBRANCH   1  12
TORSDOF 3
ENDMDL
MODEL 5
REMARK minimizedAffinity -5.10422421
REMARK minimizedRMSD -1
REMARK  Name = 
REMARK  3 active torsions:
REMARK  status: ('A' for Active; 'I' for Inactive)
REMARK    1  A    between atoms: C_1  and  C_2
REMARK    2  A    between atoms: C_2  and  O_3
REMARK    3  A    between atoms: C_2  and  C_4
REMARK                            x       y       z     vdW  Elec       q    Type
REMARK                         _______ _______ _______ _____ _____    ______ ____
ROOT
ATOM      1  C   UNL     1      21.939  54.237  27.904  0.00  0.00    -0.019 A 
ATOM      2  C   UNL     1      21.448  54.344  29.213  0.00  0.00    -0.056 A 
ATOM      3  C   UNL     1      20.087  54.548  29.447  0.00  0.00    -0.061 A 
ATOM      4  C   UNL     1      19.201  54.648  28.375  0.00  0.00    -0.062 A 
ATOM      5  C   UNL     1      19.675  54.545  27.070  0.00  0.00    -0.061 A 
ATOM      6  C   UNL     1      21.036  54.341  26.835  0.00  0.00    -0.056 A 
ATOM      7  H   UNL     1      22.123  54.270  30.064  0.00  0.00    +0.062 HD
ATOM      8  H   UNL     1      19.716  54.630  30.466  0.00  0.00    +0.062 HD
ATOM      9  H   UNL     1      18.141  54.807  28.558  0.00  0.00    +0.062 HD
ATOM     10  H   UNL     1      18.986  54.624  26.232  0.00  0.00    +0.062 HD
ATOM     11  H   UNL     1      21.393  54.261  25.809  0.00  0.00    +0.062 HD
ENDROOT
BRANCH   1  12
ATOM     12  C   UNL     1      23.416  54.015  27.659  0.00  0.00    +0.077 C 
ATOM     13  H   UNL     1      23.923  54.981  27.553  0.00  0.00    +0.064 HD
BRANCH  12  14
ATOM     14  C   UNL     1      23.685  53.179  26.415  0.00  0.00    -0.035 C 
ATOM     15  H   UNL     1      23.279  52.166  26.514  0.00  0.00    +0.026 HD
ATOM     16  H   UNL     1      24.764  53.067  26.261  0.00  0.00    +0.026 HD
ATOM     17  H   UNL     1      23.252  53.640  25.522  0.00  0.00    +0.026 HD
ENDBRANCH  12  14
BRANCH  12  18
ATOM     18  O   UNL     1      24.006  53.368  28.785  0.00  0.00    -0.387 OA
ATOM     19  H   UNL     1      23.513  53.658  29.571  0.00  0.00    +0.210 HD
ENDBRANCH  12  18
ENDBRANCH   1  12
TORSDOF 3
ENDMDL
MODEL 6
REMARK minimizedAffinity -5.09775019
REMARK minimizedRMSD -1
REMARK  Name = 
REMARK  3 active torsions:
REMARK  status: ('A' for Active; 'I' for Inactive)
REMARK    1  A    between atoms: C_1  and  C_2
REMARK    2  A    between atoms: C_2  and  O_3
REMARK    3  A    between atoms: C_2  and  C_4
REMARK                            x       y       z     vdW  Elec       q    Type
REMARK                         _______ _______ _______ _____ _____    ______ ____
ROOT
ATOM      1  C   UNL     1      22.002  53.928  27.791  0.00  0.00    -0.019 A 
ATOM      2  C   UNL     1      21.570  54.283  29.076  0.00  0.00    -0.056 A 
ATOM      3  C   UNL     1      20.339  54.915  29.262  0.00  0.00    -0.061 A 
ATOM      4  C   UNL     1      19.526  55.199  28.165  0.00  0.00    -0.062 A 
ATOM      5  C   UNL     1      19.945  54.853  26.882  0.00  0.00    -0.061 A 
ATOM      6  C   UNL     1      21.175  54.220  26.696  0.00  0.00    -0.056 A 
ATOM      7  H   UNL     1      22.189  54.071  29.946  0.00  0.00    +0.062 HD
ATOM      8  H   UNL     1      20.012  55.187  30.263  0.00  0.00    +0.062 HD
ATOM      9  H   UNL     1      18.569  55.692  28.311  0.00  0.00    +0.062 HD
ATOM     10  H   UNL     1      19.313  55.075  26.025  0.00  0.00    +0.062 HD
ATOM     11  H   UNL     1      21.489  53.955  25.688  0.00  0.00    +0.062 HD
ENDROOT
BRANCH   1  12
ATOM     12  C   UNL     1      23.338  53.242  27.597  0.00  0.00    +0.077 C 
ATOM     13  H   UNL     1      23.244  52.175  27.828  0.00  0.00    +0.064 HD
BRANCH  12  14
ATOM     14  C   UNL     1      24.436  53.838  28.467  0.00  0.00    -0.035 C 
ATOM     15  H   UNL     1      24.635  54.883  28.205  0.00  0.00    +0.026 HD
ATOM     16  H   UNL     1      25.376  53.296  28.315  0.00  0.00    +0.026 HD
ATOM     17  H   UNL     1      24.174  53.792  29.529  0.00  0.00    +0.026 HD
ENDBRANCH  12  14
BRANCH  12  18
ATOM     18  O   UNL     1      23.737  53.327  26.230  0.00  0.00    -0.387 OA
ATOM     19  H   UNL     1      22.924  53.333  25.696  0.00  0.00    +0.210 HD
ENDBRANCH  12  18
ENDBRANCH   1  12
TORSDOF 3
ENDMDL
MODEL 7
REMARK minimizedAffinity -5.09000731
REMARK minimizedRMSD -1
REMARK  Name = 
REMARK  3 active torsions:
REMARK  status: ('A' for Active; 'I' for Inactive)
REMARK    1  A    between atoms: C_1  and  C_2
REMARK    2  A    between atoms: C_2  and  O_3
REMARK    3  A    between atoms: C_2  and  C_4
REMARK                            x       y       z     vdW  Elec       q    Type
REMARK                         _______ _______ _______ _____ _____    ______ ____
ROOT
ATOM      1  C   UNL     1      21.963  53.947  27.795  0.00  0.00    -0.019 A 
ATOM      2  C   UNL     1      21.145  54.240  26.694  0.00  0.00    -0.056 A 
ATOM      3  C   UNL     1      19.916  54.877  26.872  0.00  0.00    -0.061 A 
ATOM      4  C   UNL     1      19.489  55.228  28.151  0.00  0.00    -0.062 A 
ATOM      5  C   UNL     1      20.290  54.941  29.254  0.00  0.00    -0.061 A 
ATOM      6  C   UNL     1      21.520  54.305  29.078  0.00  0.00    -0.056 A 
ATOM      7  H   UNL     1      21.460  53.974  25.686  0.00  0.00    +0.062 HD
ATOM      8  H   UNL     1      19.289  55.100  26.011  0.00  0.00    +0.062 HD
ATOM      9  H   UNL     1      18.531  55.723  28.289  0.00  0.00    +0.062 HD
ATOM     10  H   UNL     1      19.958  55.213  30.254  0.00  0.00    +0.062 HD
ATOM     11  H   UNL     1      22.136  54.088  29.949  0.00  0.00    +0.062 HD
ENDROOT
BRANCH   1  12
ATOM     12  C   UNL     1      23.295  53.257  27.595  0.00  0.00    +0.077 C 
ATOM     13  H   UNL     1      23.201  52.192  27.838  0.00  0.00    +0.064 HD
BRANCH  12  14
ATOM     14  C   UNL     1      24.403  53.861  28.446  0.00  0.00    -0.035 C 
ATOM     15  H   UNL     1      24.601  54.902  28.170  0.00  0.00    +0.026 HD
ATOM     16  H   UNL     1      25.340  53.315  28.290  0.00  0.00    +0.026 HD
ATOM     17  H   UNL     1      24.153  53.826  29.511  0.00  0.00    +0.026 HD
ENDBRANCH  12  14
BRANCH  12  18
ATOM     18  O   UNL     1      23.679  53.326  26.222  0.00  0.00    -0.387 OA
ATOM     19  H   UNL     1      22.861  53.328  25.697  0.00  0.00    +0.210 HD
ENDBRANCH  12  18
ENDBRANCH   1  12
TORSDOF 3
ENDMDL
MODEL 8
REMARK minimizedAffinity -5.03854656
REMARK minimizedRMSD -1
REMARK  Name = 
REMARK  3 active torsions:
REMARK  status: ('A' for Active; 'I' for Inactive)
REMARK    1  A    between atoms: C_1  and  C_2
REMARK    2  A    between atoms: C_2  and  O_3
REMARK    3  A    between atoms: C_2  and  C_4
REMARK                            x       y       z     vdW  Elec       q    Type
REMARK                         _______ _______ _______ _____ _____    ______ ____
ROOT
ATOM      1  C   UNL     1      22.145  53.939  28.527  0.00  0.00    -0.019 A 
ATOM      2  C   UNL     1      21.124  54.566  29.255  0.00  0.00    -0.056 A 
ATOM      3  C   UNL     1      20.013  55.102  28.601  0.00  0.00    -0.061 A 
ATOM      4  C   UNL     1      19.909  55.017  27.214  0.00  0.00    -0.062 A 
ATOM      5  C   UNL     1      20.917  54.397  26.479  0.00  0.00    -0.061 A 
ATOM      6  C   UNL     1      22.029  53.861  27.131  0.00  0.00    -0.056 A 
ATOM      7  H   UNL     1      21.186  54.644  30.339  0.00  0.00    +0.062 HD
ATOM      8  H   UNL     1      19.226  55.587  29.174  0.00  0.00    +0.062 HD
ATOM      9  H   UNL     1      19.044  55.435  26.706  0.00  0.00    +0.062 HD
ATOM     10  H   UNL     1      20.839  54.331  25.396  0.00  0.00    +0.062 HD
ATOM     11  H   UNL     1      22.809  53.379  26.543  0.00  0.00    +0.062 HD
ENDROOT
BRANCH   1  12
ATOM     12  C   UNL     1      23.347  53.360  29.242  0.00  0.00    +0.077 C 
ATOM     13  H   UNL     1      23.341  53.675  30.292  0.00  0.00    +0.064 HD
BRANCH  12  14
ATOM     14  C   UNL     1      24.666  53.781  28.609  0.00  0.00    -0.035 C 
ATOM     15  H   UNL     1      24.761  53.402  27.585  0.00  0.00    +0.026 HD
ATOM     16  H   UNL     1      25.507  53.362  29.173  0.00  0.00    +0.026 HD
ATOM     17  H   UNL     1      24.770  54.869  28.587  0.00  0.00    +0.026 HD
ENDBRANCH  12  14
BRANCH  12  18
ATOM     18  O   UNL     1      23.273  51.935  29.247  0.00  0.00    -0.387 OA
ATOM     19  H   UNL     1      22.329  51.699  29.262  0.00  0.00    +0.210 HD
ENDBRANCH  12  18
ENDBRANCH   1  12
TORSDOF 3
ENDMDL
MODEL 9
REMARK minimizedAffinity -4.84873152
REMARK minimizedRMSD -1
REMARK  Name = 
REMARK  3 active torsions:
REMARK  status: ('A' for Active; 'I' for Inactive)
REMARK    1  A    between atoms: C_1  and  C_2
REMARK    2  A    between atoms: C_2  and  O_3
REMARK    3  A    between atoms: C_2  and  C_4
REMARK                            x       y       z     vdW  Elec       q    Type
REMARK                         _______ _______ _______ _____ _____    ______ ____
ROOT
ATOM      1  C   UNL     1      22.068  54.111  27.758  0.00  0.00    -0.019 A 
ATOM      2  C   UNL     1      22.807  53.604  28.836  0.00  0.00    -0.056 A 
ATOM      3  C   UNL     1      23.998  52.911  28.616  0.00  0.00    -0.061 A 
ATOM      4  C   UNL     1      24.465  52.716  27.317  0.00  0.00    -0.062 A 
ATOM      5  C   UNL     1      23.739  53.213  26.237  0.00  0.00    -0.061 A 
ATOM      6  C   UNL     1      22.548  53.906  26.455  0.00  0.00    -0.056 A 
ATOM      7  H   UNL     1      22.460  53.745  29.858  0.00  0.00    +0.062 HD
ATOM      8  H   UNL     1      24.565  52.521  29.459  0.00  0.00    +0.062 HD
ATOM      9  H   UNL     1      25.392  52.175  27.147  0.00  0.00    +0.062 HD
ATOM     10  H   UNL     1      24.101  53.060  25.222  0.00  0.00    +0.062 HD
ATOM     11  H   UNL     1      21.992  54.290  25.601  0.00  0.00    +0.062 HD
ENDROOT
BRANCH   1  12
ATOM     12  C   UNL     1      20.777  54.863  28.003  0.00  0.00    +0.077 C 
ATOM     13  H   UNL     1      20.981  55.938  28.069  0.00  0.00    +0.064 HD
BRANCH  12  14
ATOM     14  C   UNL     1      20.071  54.418  29.277  0.00  0.00    -0.035 C 
ATOM     15  H   UNL     1      19.759  53.369  29.220  0.00  0.00    +0.026 HD
ATOM     16  H   UNL     1      19.159  55.005  29.429  0.00  0.00    +0.026 HD
ATOM     17  H   UNL     1      20.714  54.539  30.154  0.00  0.00    +0.026 HD
ENDBRANCH  12  14
BRANCH  12  18
ATOM     18  O   UNL     1      19.891  54.685  26.900  0.00  0.00    -0.387 OA
ATOM     19  H   UNL     1      20.442  54.579  26.105  0.00  0.00    +0.210 HD
ENDBRANCH  12  18
ENDBRANCH   1  12
TORSDOF 3
ENDMDL
