MODEL 1
REMARK minimizedAffinity -5.90783358
REMARK minimizedRMSD -1
REMARK  Name = 
REMARK  3 active torsions:
REMARK  status: ('A' for Active; 'I' for Inactive)
REMARK    1  A    between atoms: C_1  and  C_2
REMARK    2  A    between atoms: C_2  and  O_3
REMARK    3  A    between atoms: C_2  and  C_4
REMARK                            x       y       z     vdW  Elec       q    Type
REMARK                         _______ _______ _______ _____ _____    ______ ____
ROOT
ATOM      1  C   UNL     1      20.867  55.864  28.003  0.00  0.00    -0.019 A 
ATOM      2  C   UNL     1      19.479  55.995  27.849  0.00  0.00    -0.056 A 
ATOM      3  C   UNL     1      18.620  54.978  28.269  0.00  0.00    -0.061 A 
ATOM      4  C   UNL     1      19.137  53.820  28.847  0.00  0.00    -0.062 A 
ATOM      5  C   UNL     1      20.513  53.676  29.004  0.00  0.00    -0.061 A 
ATOM      6  C   UNL     1      21.374  54.692  28.585  0.00  0.00    -0.056 A 
ATOM      7  H   UNL     1      19.056  56.891  27.400  0.00  0.00    +0.062 HD
ATOM      8  H   UNL     1      17.545  55.088  28.144  0.00  0.00    +0.062 HD
ATOM      9  H   UNL     1      18.467  53.028  29.172  0.00  0.00    +0.062 HD
ATOM     10  H   UNL     1      20.919  52.772  29.453  0.00  0.00    +0.062 HD
ATOM     11  H   UNL     1      22.448  54.567  28.715  0.00  0.00    +0.062 HD
ENDROOT
BRANCH   1  12
ATOM     12  C   UNL     1      21.793  56.971  27.547  0.00  0.00    +0.077 C 
ATOM     13  H   UNL     1      22.298  57.414  28.413  0.00  0.00    +0.064 HD
BRANCH  12  14
ATOM     14  C   UNL     1      21.064  58.071  26.787  0.00  0.00    -0.035 C 
ATOM     15  H   UNL     1      20.624  57.695  25.857  0.00  0.00    +0.026 HD
ATOM     16  H   UNL     1      21.766  58.862  26.500  0.00  0.00    +0.026 HD
ATOM     17  H   UNL     1      20.268  58.515  27.392  0.00  0.00    +0.026 HD
ENDBRANCH  12  14
BRANCH  12  18
ATOM     18  O   UNL     1      22.818  56.436  26.710  0.00  0.00    -0.387 OA
ATOM     19  H   UNL     1      22.988  55.528  27.014  0.00  0.00    +0.210 HD
ENDBRANCH  12  18
ENDBRANCH   1  12
TORSDOF 3
ENDMDL
MODEL 2
REMARK minimizedAffinity -5.9014945
REMARK minimizedRMSD -1
REMARK  Name = 
REMARK  3 active torsions:
REMARK  status: ('A' for Active; 'I' for Inactive)
REMARK    1  A    between atoms: C_1  and  C_2
REMARK    2  A    between atoms: C_2  and  O_3
REMARK    3  A    between atoms: C_2  and  C_4
REMARK                            x       y       z     vdW  Elec       q    Type
REMARK                         _______ _______ _______ _____ _____    ______ ____
ROOT
ATOM      1  C   UNL     1      20.857  55.867  28.007  0.00  0.00    -0.019 A 
ATOM      2  C   UNL     1      21.376  54.701  28.586  0.00  0.00    -0.056 A 
ATOM      3  C   UNL     1      20.525  53.678  29.008  0.00  0.00    -0.061 A 
ATOM      4  C   UNL     1      19.146  53.809  28.856  0.00  0.00    -0.062 A 
ATOM      5  C   UNL     1      18.616  54.963  28.284  0.00  0.00    -0.061 A 
ATOM      6  C   UNL     1      19.466  55.986  27.861  0.00  0.00    -0.056 A 
ATOM      7  H   UNL     1      22.450  54.579  28.715  0.00  0.00    +0.062 HD
ATOM      8  H   UNL     1      20.937  52.777  29.456  0.00  0.00    +0.062 HD
ATOM      9  H   UNL     1      18.484  53.012  29.185  0.00  0.00    +0.062 HD
ATOM     10  H   UNL     1      17.540  55.067  28.165  0.00  0.00    +0.062 HD
ATOM     11  H   UNL     1      19.038  56.883  27.415  0.00  0.00    +0.062 HD
ENDROOT
BRANCH   1  12
ATOM     12  C   UNL     1      21.786  56.972  27.551  0.00  0.00    +0.077 C 
ATOM     13  H   UNL     1      22.285  57.418  28.419  0.00  0.00    +0.064 HD
BRANCH  12  14
ATOM     14  C   UNL     1      21.061  58.069  26.783  0.00  0.00    -0.035 C 
ATOM     15  H   UNL     1      20.626  57.689  25.852  0.00  0.00    +0.026 HD
ATOM     16  H   UNL     1      21.765  58.859  26.497  0.00  0.00    +0.026 HD
ATOM     17  H   UNL     1      20.261  58.515  27.382  0.00  0.00    +0.026 HD
ENDBRANCH  12  14
BRANCH  12  18
ATOM     18  O   UNL     1      22.816  56.434  26.724  0.00  0.00    -0.387 OA
ATOM     19  H   UNL     1      22.984  55.527  27.032  0.00  0.00    +0.210 HD
ENDBRANCH  12  18
ENDBRANCH   1  12
TORSDOF 3
ENDMDL
MODEL 3
REMARK minimizedAffinity -5.84300804
REMARK minimizedRMSD -1
REMARK  Name = 
REMARK  3 active torsions:
REMARK  status: ('A' for Active; 'I' for Inactive)
REMARK    1  A    between atoms: C_1  and  C_2
REMARK    2  A    between atoms: C_2  and  O_3
REMARK    3  A    between atoms: C_2  and  C_4
REMARK                            x       y       z     vdW  Elec       q    Type
REMARK                         _______ _______ _______ _____ _____    ______ ____
ROOT
ATOM      1  C   UNL     1      20.069  55.829  28.042  0.00  0.00    -0.019 A 
ATOM      2  C   UNL     1      21.404  55.416  28.151  0.00  0.00    -0.056 A 
ATOM      3  C   UNL     1      22.423  56.133  27.523  0.00  0.00    -0.061 A 
ATOM      4  C   UNL     1      22.121  57.272  26.779  0.00  0.00    -0.062 A 
ATOM      5  C   UNL     1      20.798  57.694  26.661  0.00  0.00    -0.061 A 
ATOM      6  C   UNL     1      19.778  56.977  27.288  0.00  0.00    -0.056 A 
ATOM      7  H   UNL     1      21.662  54.529  28.727  0.00  0.00    +0.062 HD
ATOM      8  H   UNL     1      23.456  55.804  27.614  0.00  0.00    +0.062 HD
ATOM      9  H   UNL     1      22.915  57.830  26.290  0.00  0.00    +0.062 HD
ATOM     10  H   UNL     1      20.560  58.581  26.079  0.00  0.00    +0.062 HD
ATOM     11  H   UNL     1      18.749  57.318  27.188  0.00  0.00    +0.062 HD
ENDROOT
BRANCH   1  12
ATOM     12  C   UNL     1      18.969  55.047  28.726  0.00  0.00    +0.077 C 
ATOM     13  H   UNL     1      18.621  55.592  29.611  0.00  0.00    +0.064 HD
BRANCH  12  14
ATOM     14  C   UNL     1      19.415  53.654  29.150  0.00  0.00    -0.035 C 
ATOM     15  H   UNL     1      19.681  53.035  28.285  0.00  0.00    +0.026 HD
ATOM     16  H   UNL     1      18.598  53.135  29.663  0.00  0.00    +0.026 HD
ATOM     17  H   UNL     1      20.277  53.697  29.821  0.00  0.00    +0.026 HD
ENDBRANCH  12  14
BRANCH  12  18
ATOM     18  O   UNL     1      17.843  54.925  27.857  0.00  0.00    -0.387 OA
ATOM     19  H   UNL     1      17.826  55.722  27.299  0.00  0.00    +0.210 HD
ENDBRANCH  12  18
ENDBRANCH   1  12
TORSDOF 3
ENDMDL
MODEL 4
REMARK minimizedAffinity -5.77027941
REMARK minimizedRMSD -1
REMARK  Name = 
REMARK  3 active torsions:
REMARK  status: ('A' for Active; 'I' for Inactive)
REMARK    1  A    between atoms: C_1  and  C_2
REMARK    2  A    between atoms: C_2  and  O_3
REMARK    3  A    between atoms: C_2  and  C_4
REMARK                            x       y       z     vdW  Elec       q    Type
REMARK                         _______ _______ _______ _____ _____    ______ ____
ROOT
ATOM      1  C   UNL     1      20.879  55.518  28.136  0.00  0.00    -0.019 A 
ATOM      2  C   UNL     1      19.693  56.180  27.788  0.00  0.00    -0.056 A 
ATOM      3  C   UNL     1      19.727  57.332  27.002  0.00  0.00    -0.061 A 
ATOM      4  C   UNL     1      20.947  57.837  26.553  0.00  0.00    -0.062 A 
ATOM      5  C   UNL     1      22.133  57.190  26.892  0.00  0.00    -0.061 A 
ATOM      6  C   UNL     1      22.100  56.037  27.678  0.00  0.00    -0.056 A 
ATOM      7  H   UNL     1      18.731  55.803  28.129  0.00  0.00    +0.062 HD
ATOM      8  H   UNL     1      18.802  57.839  26.738  0.00  0.00    +0.062 HD
ATOM      9  H   UNL     1      20.972  58.735  25.941  0.00  0.00    +0.062 HD
ATOM     10  H   UNL     1      23.086  57.583  26.543  0.00  0.00    +0.062 HD
ATOM     11  H   UNL     1      23.035  55.541  27.934  0.00  0.00    +0.062 HD
ENDROOT
BRANCH   1  12
ATOM     12  C   UNL     1      20.835  54.268  28.989  0.00  0.00    +0.077 C 
ATOM     13  H   UNL     1      20.951  54.536  30.045  0.00  0.00    +0.064 HD
BRANCH  12  14
ATOM     14  C   UNL     1      21.915  53.263  28.614  0.00  0.00    -0.035 C 
ATOM     15  H   UNL     1      21.782  52.890  27.592  0.00  0.00    +0.026 HD
ATOM     16  H   UNL     1      21.862  52.388  29.272  0.00  0.00    +0.026 HD
ATOM     17  H   UNL     1      22.914  53.700  28.695  0.00  0.00    +0.026 HD
ENDBRANCH  12  14
BRANCH  12  18
ATOM     18  O   UNL     1      19.559  53.640  28.868  0.00  0.00    -0.387 OA
ATOM     19  H   UNL     1      18.908  54.345  28.711  0.00  0.00    +0.210 HD
ENDBRANCH  12  18
ENDBRANCH   1  12
TORSDOF 3
ENDMDL
MODEL 5
REMARK minimizedAffinity -5.65261364
REMARK minimizedRMSD -1
REMARK  Name = 
REMARK  3 active torsions:
REMARK  status: ('A' for Active; 'I' for Inactive)
REMARK    1  A    between atoms: C_1  and  C_2
REMARK    2  A    between atoms: C_2  and  O_3
REMARK    3  A    between atoms: C_2  and  C_4
REMARK                            x       y       z     vdW  Elec       q    Type
REMARK                         _______ _______ _______ _____ _____    ______ ____
ROOT
ATOM      1  C   UNL     1      21.165  55.371  28.131  0.00  0.00    -0.019 A 
ATOM      2  C   UNL     1      22.325  55.960  27.608  0.00  0.00    -0.056 A 
ATOM      3  C   UNL     1      22.244  57.113  26.827  0.00  0.00    -0.061 A 
ATOM      4  C   UNL     1      21.005  57.692  26.559  0.00  0.00    -0.062 A 
ATOM      5  C   UNL     1      19.845  57.117  27.071  0.00  0.00    -0.061 A 
ATOM      6  C   UNL     1      19.923  55.963  27.853  0.00  0.00    -0.056 A 
ATOM      7  H   UNL     1      23.302  55.523  27.804  0.00  0.00    +0.062 HD
ATOM      8  H   UNL     1      23.150  57.562  26.425  0.00  0.00    +0.062 HD
ATOM      9  H   UNL     1      20.944  58.590  25.950  0.00  0.00    +0.062 HD
ATOM     10  H   UNL     1      18.876  57.566  26.862  0.00  0.00    +0.062 HD
ATOM     11  H   UNL     1      19.008  55.525  28.248  0.00  0.00    +0.062 HD
ENDROOT
BRANCH   1  12
ATOM     12  C   UNL     1      21.259  54.120  28.979  0.00  0.00    +0.077 C 
ATOM     13  H   UNL     1      21.593  54.381  29.989  0.00  0.00    +0.064 HD
BRANCH  12  14
ATOM     14  C   UNL     1      22.214  53.087  28.397  0.00  0.00    -0.035 C 
ATOM     15  H   UNL     1      21.868  52.721  27.423  0.00  0.00    +0.026 HD
ATOM     16  H   UNL     1      22.271  52.212  29.054  0.00  0.00    +0.026 HD
ATOM     17  H   UNL     1      23.220  53.497  28.274  0.00  0.00    +0.026 HD
ENDBRANCH  12  14
BRANCH  12  18
ATOM     18  O   UNL     1      19.969  53.527  29.119  0.00  0.00    -0.387 OA
ATOM     19  H   UNL     1      19.318  54.250  29.094  0.00  0.00    +0.210 HD
ENDBRANCH  12  18
ENDBRANCH   1  12
TORSDOF 3
ENDMDL
MODEL 6
REMARK minimizedAffinity -5.63537073
REMARK minimizedRMSD -1
REMARK  Name = 
REMARK  3 active torsions:
REMARK  status: ('A' for Active; 'I' for Inactive)
REMARK    1  A    between atoms: C_1  and  C_2
REMARK    2  A    between atoms: C_2  and  O_3
REMARK    3  A    between atoms: C_2  and  C_4
REMARK                            x       y       z     vdW  Elec       q    Type
REMARK                         _______ _______ _______ _____ _____    ______ ____
ROOT
ATOM      1  C   UNL     1      19.204  54.741  28.613  0.00  0.00    -0.019 A 
ATOM      2  C   UNL     1      19.440  55.978  27.996  0.00  0.00    -0.056 A 
ATOM      3  C   UNL     1      20.740  56.375  27.678  0.00  0.00    -0.061 A 
ATOM      4  C   UNL     1      21.818  55.542  27.972  0.00  0.00    -0.062 A 
ATOM      5  C   UNL     1      21.597  54.311  28.586  0.00  0.00    -0.061 A 
ATOM      6  C   UNL     1      20.298  53.912  28.904  0.00  0.00    -0.056 A 
ATOM      7  H   UNL     1      18.613  56.644  27.758  0.00  0.00    +0.062 HD
ATOM      8  H   UNL     1      20.914  57.336  27.200  0.00  0.00    +0.062 HD
ATOM      9  H   UNL     1      22.830  55.852  27.725  0.00  0.00    +0.062 HD
ATOM     10  H   UNL     1      22.437  53.660  28.818  0.00  0.00    +0.062 HD
ATOM     11  H   UNL     1      20.140  52.947  29.383  0.00  0.00    +0.062 HD
ENDROOT
BRANCH   1  12
ATOM     12  C   UNL     1      17.791  54.316  28.954  0.00  0.00    +0.077 C 
ATOM     13  H   UNL     1      17.079  54.848  28.313  0.00  0.00    +0.064 HD
BRANCH  12  14
ATOM     14  C   UNL     1      17.434  54.580  30.411  0.00  0.00    -0.035 C 
ATOM     15  H   UNL     1      18.059  53.991  31.092  0.00  0.00    +0.026 HD
ATOM     16  H   UNL     1      16.398  54.282  30.606  0.00  0.00    +0.026 HD
ATOM     17  H   UNL     1      17.548  55.637  30.665  0.00  0.00    +0.026 HD
ENDBRANCH  12  14
BRANCH  12  18
ATOM     18  O   UNL     1      17.621  52.925  28.683  0.00  0.00    -0.387 OA
ATOM     19  H   UNL     1      18.204  52.707  27.936  0.00  0.00    +0.210 HD
ENDBRANCH  12  18
ENDBRANCH   1  12
TORSDOF 3
ENDMDL
MODEL 7
REMARK minimizedAffinity -5.57291555
REMARK minimizedRMSD -1
REMARK  Name = 
REMARK  3 active torsions:
REMARK  status: ('A' for Active; 'I' for Inactive)
REMARK    1  A    between atoms: C_1  and  C_2
REMARK    2  A    between atoms: C_2  and  O_3
REMARK    3  A    between atoms: C_2  and  C_4
REMARK                            x       y       z     vdW  Elec       q    Type
REMARK                         _______ _______ _______ _____ _____    ______ ____
ROOT
ATOM      1  C   UNL     1      22.548  55.701  27.544  0.00  0.00    -0.019 A 
ATOM      2  C   UNL     1      21.384  55.203  28.147  0.00  0.00    -0.056 A 
ATOM      3  C   UNL     1      20.176  55.895  28.039  0.00  0.00    -0.061 A 
ATOM      4  C   UNL     1      20.118  57.092  27.327  0.00  0.00    -0.062 A 
ATOM      5  C   UNL     1      21.267  57.599  26.724  0.00  0.00    -0.061 A 
ATOM      6  C   UNL     1      22.474  56.908  26.832  0.00  0.00    -0.056 A 
ATOM      7  H   UNL     1      21.408  54.270  28.708  0.00  0.00    +0.062 HD
ATOM      8  H   UNL     1      19.279  55.501  28.510  0.00  0.00    +0.062 HD
ATOM      9  H   UNL     1      19.177  57.630  27.244  0.00  0.00    +0.062 HD
ATOM     10  H   UNL     1      21.223  58.534  26.170  0.00  0.00    +0.062 HD
ATOM     11  H   UNL     1      23.365  57.315  26.355  0.00  0.00    +0.062 HD
ENDROOT
BRANCH   1  12
ATOM     12  C   UNL     1      23.854  54.945  27.665  0.00  0.00    +0.077 C 
ATOM     13  H   UNL     1      24.056  54.721  28.718  0.00  0.00    +0.064 HD
BRANCH  12  14
ATOM     14  C   UNL     1      25.034  55.716  27.090  0.00  0.00    -0.035 C 
ATOM     15  H   UNL     1      24.922  55.879  26.012  0.00  0.00    +0.026 HD
ATOM     16  H   UNL     1      25.959  55.145  27.222  0.00  0.00    +0.026 HD
ATOM     17  H   UNL     1      25.151  56.688  27.577  0.00  0.00    +0.026 HD
ENDBRANCH  12  14
BRANCH  12  18
ATOM     18  O   UNL     1      23.754  53.689  26.995  0.00  0.00    -0.387 OA
ATOM     19  H   UNL     1      22.827  53.403  27.062  0.00  0.00    +0.210 HD
ENDBRANCH  12  18
ENDBRANCH   1  12
TORSDOF 3
ENDMDL
MODEL 8
REMARK minimizedAffinity -5.56750441
REMARK minimizedRMSD -1
REMARK  Name = 
REMARK  3 active torsions:
REMARK  status: ('A' for Active; 'I' for Inactive)
REMARK    1  A    between atoms: C_1  and  C_2
REMARK    2  A    between atoms: C_2  and  O_3
REMARK    3  A    between atoms: C_2  and  C_4
REMARK                            x       y       z     vdW  Elec       q    Type
REMARK                         _______ _______ _______ _____ _____    ______ ____
ROOT
ATOM      1  C   UNL     1      22.543  55.694  27.547  0.00  0.00    -0.019 A 
ATOM      2  C   UNL     1      22.481  56.900  26.834  0.00  0.00    -0.056 A 
ATOM      3  C   UNL     1      21.278  57.599  26.725  0.00  0.00    -0.061 A 
ATOM      4  C   UNL     1      20.124  57.102  27.328  0.00  0.00    -0.062 A 
ATOM      5  C   UNL     1      20.171  55.904  28.038  0.00  0.00    -0.061 A 
ATOM      6  C   UNL     1      21.373  55.204  28.147  0.00  0.00    -0.056 A 
ATOM      7  H   UNL     1      23.371  57.305  26.355  0.00  0.00    +0.062 HD
ATOM      8  H   UNL     1      21.240  58.533  26.170  0.00  0.00    +0.062 HD
ATOM      9  H   UNL     1      19.187  57.647  27.242  0.00  0.00    +0.062 HD
ATOM     10  H   UNL     1      19.271  55.514  28.508  0.00  0.00    +0.062 HD
ATOM     11  H   UNL     1      21.396  54.270  28.706  0.00  0.00    +0.062 HD
ENDROOT
BRANCH   1  12
ATOM     12  C   UNL     1      23.852  54.941  27.661  0.00  0.00    +0.077 C 
ATOM     13  H   UNL     1      24.055  54.707  28.712  0.00  0.00    +0.064 HD
BRANCH  12  14
ATOM     14  C   UNL     1      25.030  55.722  27.095  0.00  0.00    -0.035 C 
ATOM     15  H   UNL     1      24.919  55.896  26.019  0.00  0.00    +0.026 HD
ATOM     16  H   UNL     1      25.957  55.153  27.222  0.00  0.00    +0.026 HD
ATOM     17  H   UNL     1      25.144  56.690  27.591  0.00  0.00    +0.026 HD
ENDBRANCH  12  14
BRANCH  12  18
ATOM     18  O   UNL     1      23.757  53.691  26.979  0.00  0.00    -0.387 OA
ATOM     19  H   UNL     1      22.831  53.401  27.043  0.00  0.00    +0.210 HD
ENDBRANCH  12  18
ENDBRANCH   1  12
TORSDOF 3
ENDMDL
MODEL 9
REMARK minimizedAffinity -5.5508523
REMARK minimizedRMSD -1
REMARK  Name = 
REMARK  3 active torsions:
REMARK  status: ('A' for Active; 'I' for Inactive)
REMARK    1  A    between atoms: C_1  and  C_2
REMARK    2  A    between atoms: C_2  and  O_3
REMARK    3  A    between atoms: C_2  and  C_4
REMARK                            x       y       z     vdW  Elec       q    Type
REMARK                         _______ _______ _______ _____ _____    ______ ____
ROOT
ATOM      1  C   UNL     1      20.019  55.867  27.955  0.00  0.00    -0.019 A 
ATOM      2  C   UNL     1      18.905  55.083  28.285  0.00  0.00    -0.056 A 
ATOM      3  C   UNL     1      19.069  53.819  28.853  0.00  0.00    -0.061 A 
ATOM      4  C   UNL     1      20.348  53.323  29.099  0.00  0.00    -0.062 A 
ATOM      5  C   UNL     1      21.465  54.091  28.775  0.00  0.00    -0.061 A 
ATOM      6  C   UNL     1      21.302  55.355  28.206  0.00  0.00    -0.056 A 
ATOM      7  H   UNL     1      17.897  55.450  28.100  0.00  0.00    +0.062 HD
ATOM      8  H   UNL     1      18.198  53.218  29.105  0.00  0.00    +0.062 HD
ATOM      9  H   UNL     1      20.475  52.338  29.541  0.00  0.00    +0.062 HD
ATOM     10  H   UNL     1      22.464  53.705  28.964  0.00  0.00    +0.062 HD
ATOM     11  H   UNL     1      22.183  55.944  27.959  0.00  0.00    +0.062 HD
ENDROOT
BRANCH   1  12
ATOM     12  C   UNL     1      19.834  57.237  27.339  0.00  0.00    +0.077 C 
ATOM     13  H   UNL     1      19.008  57.211  26.619  0.00  0.00    +0.064 HD
BRANCH  12  14
ATOM     14  C   UNL     1      21.087  57.738  26.634  0.00  0.00    -0.035 C 
ATOM     15  H   UNL     1      21.917  57.875  27.335  0.00  0.00    +0.026 HD
ATOM     16  H   UNL     1      20.899  58.719  26.181  0.00  0.00    +0.026 HD
ATOM     17  H   UNL     1      21.407  57.047  25.848  0.00  0.00    +0.026 HD
ENDBRANCH  12  14
BRANCH  12  18
ATOM     18  O   UNL     1      19.464  58.179  28.345  0.00  0.00    -0.387 OA
ATOM     19  H   UNL     1      18.957  57.692  29.018  0.00  0.00    +0.210 HD
ENDBRANCH  12  18
ENDBRANCH   1  12
TORSDOF 3
ENDMDL
