MODEL 1
REMARK minimizedAffinity -5.96871758
REMARK minimizedRMSD -1
REMARK  Name = 
REMARK  3 active torsions:
REMARK  status: ('A' for Active; 'I' for Inactive)
REMARK    1  A    between atoms: C_1  and  C_2
REMARK    2  A    between atoms: C_2  and  O_3
REMARK    3  A    between atoms: C_2  and  C_4
REMARK                            x       y       z     vdW  Elec       q    Type
REMARK                         _______ _______ _______ _____ _____    ______ ____
ROOT
ATOM      1  C   UNL     1      20.642  55.987  27.917  0.00  0.00    -0.019 A 
ATOM      2  C   UNL     1      21.290  54.890  28.500  0.00  0.00    -0.056 A 
ATOM      3  C   UNL     1      20.556  53.798  28.969  0.00  0.00    -0.061 A 
ATOM      4  C   UNL     1      19.167  53.792  28.860  0.00  0.00    -0.062 A 
ATOM      5  C   UNL     1      18.509  54.875  28.282  0.00  0.00    -0.061 A 
ATOM      6  C   UNL     1      19.242  55.966  27.813  0.00  0.00    -0.056 A 
ATOM      7  H   UNL     1      22.374  54.874  28.593  0.00  0.00    +0.062 HD
ATOM      8  H   UNL     1      21.068  52.952  29.419  0.00  0.00    +0.062 HD
ATOM      9  H   UNL     1      18.597  52.941  29.225  0.00  0.00    +0.062 HD
ATOM     10  H   UNL     1      17.425  54.871  28.195  0.00  0.00    +0.062 HD
ATOM     11  H   UNL     1      18.715  56.807  27.364  0.00  0.00    +0.062 HD
ENDROOT
BRANCH   1  12
ATOM     12  C   UNL     1      21.443  57.168  27.412  0.00  0.00    +0.077 C 
ATOM     13  H   UNL     1      21.495  57.940  28.188  0.00  0.00    +0.064 HD
BRANCH  12  14
ATOM     14  C   UNL     1      22.860  56.786  27.006  0.00  0.00    -0.035 C 
ATOM     15  H   UNL     1      22.862  56.086  26.163  0.00  0.00    +0.026 HD
ATOM     16  H   UNL     1      23.411  57.672  26.673  0.00  0.00    +0.026 HD
ATOM     17  H   UNL     1      23.406  56.328  27.837  0.00  0.00    +0.026 HD
ENDBRANCH  12  14
BRANCH  12  18
ATOM     18  O   UNL     1      20.788  57.761  26.292  0.00  0.00    -0.387 OA
ATOM     19  H   UNL     1      19.832  57.628  26.418  0.00  0.00    +0.210 HD
ENDBRANCH  12  18
ENDBRANCH   1  12
TORSDOF 3
ENDMDL
MODEL 2
REMARK minimizedAffinity -5.96359777
REMARK minimizedRMSD -1
REMARK  Name = 
REMARK  3 active torsions:
REMARK  status: ('A' for Active; 'I' for Inactive)
REMARK    1  A    between atoms: C_1  and  C_2
REMARK    2  A    between atoms: C_2  and  O_3
REMARK    3  A    between atoms: C_2  and  C_4
REMARK                            x       y       z     vdW  Elec       q    Type
REMARK                         _______ _______ _______ _____ _____    ______ ____
ROOT
ATOM      1  C   UNL     1      20.651  55.987  27.919  0.00  0.00    -0.019 A 
ATOM      2  C   UNL     1      19.253  55.976  27.810  0.00  0.00    -0.056 A 
ATOM      3  C   UNL     1      18.513  54.886  28.274  0.00  0.00    -0.061 A 
ATOM      4  C   UNL     1      19.163  53.796  28.852  0.00  0.00    -0.062 A 
ATOM      5  C   UNL     1      20.551  53.795  28.968  0.00  0.00    -0.061 A 
ATOM      6  C   UNL     1      21.291  54.884  28.504  0.00  0.00    -0.056 A 
ATOM      7  H   UNL     1      18.727  56.817  27.364  0.00  0.00    +0.062 HD
ATOM      8  H   UNL     1      17.431  54.887  28.186  0.00  0.00    +0.062 HD
ATOM      9  H   UNL     1      18.586  52.949  29.214  0.00  0.00    +0.062 HD
ATOM     10  H   UNL     1      21.059  52.946  29.419  0.00  0.00    +0.062 HD
ATOM     11  H   UNL     1      22.375  54.869  28.600  0.00  0.00    +0.062 HD
ENDROOT
BRANCH   1  12
ATOM     12  C   UNL     1      21.446  57.171  27.413  0.00  0.00    +0.077 C 
ATOM     13  H   UNL     1      21.494  57.945  28.187  0.00  0.00    +0.064 HD
BRANCH  12  14
ATOM     14  C   UNL     1      22.865  56.795  27.008  0.00  0.00    -0.035 C 
ATOM     15  H   UNL     1      22.872  56.094  26.166  0.00  0.00    +0.026 HD
ATOM     16  H   UNL     1      23.413  57.684  26.674  0.00  0.00    +0.026 HD
ATOM     17  H   UNL     1      23.413  56.340  27.839  0.00  0.00    +0.026 HD
ENDBRANCH  12  14
BRANCH  12  18
ATOM     18  O   UNL     1      20.789  57.760  26.291  0.00  0.00    -0.387 OA
ATOM     19  H   UNL     1      19.834  57.622  26.417  0.00  0.00    +0.210 HD
ENDBRANCH  12  18
ENDBRANCH   1  12
TORSDOF 3
ENDMDL
MODEL 3
REMARK minimizedAffinity -5.88359737
REMARK minimizedRMSD -1
REMARK  Name = 
REMARK  3 active torsions:
REMARK  status: ('A' for Active; 'I' for Inactive)
REMARK    1  A    between atoms: C_1  and  C_2
REMARK    2  A    between atoms: C_2  and  O_3
REMARK    3  A    between atoms: C_2  and  C_4
REMARK                            x       y       z     vdW  Elec       q    Type
REMARK                         _______ _______ _______ _____ _____    ______ ____
ROOT
ATOM      1  C   UNL     1      20.026  55.864  27.929  0.00  0.00    -0.019 A 
ATOM      2  C   UNL     1      19.820  57.063  27.233  0.00  0.00    -0.056 A 
ATOM      3  C   UNL     1      20.902  57.778  26.713  0.00  0.00    -0.061 A 
ATOM      4  C   UNL     1      22.200  57.301  26.884  0.00  0.00    -0.062 A 
ATOM      5  C   UNL     1      22.419  56.110  27.573  0.00  0.00    -0.061 A 
ATOM      6  C   UNL     1      21.339  55.396  28.092  0.00  0.00    -0.056 A 
ATOM      7  H   UNL     1      18.814  57.451  27.087  0.00  0.00    +0.062 HD
ATOM      8  H   UNL     1      20.731  58.706  26.175  0.00  0.00    +0.062 HD
ATOM      9  H   UNL     1      23.041  57.858  26.478  0.00  0.00    +0.062 HD
ATOM     10  H   UNL     1      23.432  55.737  27.705  0.00  0.00    +0.062 HD
ATOM     11  H   UNL     1      21.525  54.467  28.629  0.00  0.00    +0.062 HD
ENDROOT
BRANCH   1  12
ATOM     12  C   UNL     1      18.850  55.095  28.491  0.00  0.00    +0.077 C 
ATOM     13  H   UNL     1      18.087  54.966  27.715  0.00  0.00    +0.064 HD
BRANCH  12  14
ATOM     14  C   UNL     1      19.244  53.724  29.023  0.00  0.00    -0.035 C 
ATOM     15  H   UNL     1      19.935  53.804  29.870  0.00  0.00    +0.026 HD
ATOM     16  H   UNL     1      18.361  53.193  29.394  0.00  0.00    +0.026 HD
ATOM     17  H   UNL     1      19.718  53.114  28.248  0.00  0.00    +0.026 HD
ENDBRANCH  12  14
BRANCH  12  18
ATOM     18  O   UNL     1      18.236  55.838  29.544  0.00  0.00    -0.387 OA
ATOM     19  H   UNL     1      18.360  56.781  29.336  0.00  0.00    +0.210 HD
ENDBRANCH  12  18
ENDBRANCH   1  12
TORSDOF 3
ENDMDL
MODEL 4
REMARK minimizedAffinity -5.85236883
REMARK minimizedRMSD -1
REMARK  Name = 
REMARK  3 active torsions:
REMARK  status: ('A' for Active; 'I' for Inactive)
REMARK    1  A    between atoms: C_1  and  C_2
REMARK    2  A    between atoms: C_2  and  O_3
REMARK    3  A    between atoms: C_2  and  C_4
REMARK                            x       y       z     vdW  Elec       q    Type
REMARK                         _______ _______ _______ _____ _____    ______ ____
ROOT
ATOM      1  C   UNL     1      20.212  55.691  28.171  0.00  0.00    -0.019 A 
ATOM      2  C   UNL     1      21.589  55.432  28.155  0.00  0.00    -0.056 A 
ATOM      3  C   UNL     1      22.457  56.251  27.428  0.00  0.00    -0.061 A 
ATOM      4  C   UNL     1      21.956  57.336  26.710  0.00  0.00    -0.062 A 
ATOM      5  C   UNL     1      20.590  57.605  26.719  0.00  0.00    -0.061 A 
ATOM      6  C   UNL     1      19.723  56.788  27.445  0.00  0.00    -0.056 A 
ATOM      7  H   UNL     1      22.001  54.591  28.710  0.00  0.00    +0.062 HD
ATOM      8  H   UNL     1      23.523  56.042  27.422  0.00  0.00    +0.062 HD
ATOM      9  H   UNL     1      22.633  57.972  26.145  0.00  0.00    +0.062 HD
ATOM     10  H   UNL     1      20.198  58.452  26.160  0.00  0.00    +0.062 HD
ATOM     11  H   UNL     1      18.657  57.009  27.443  0.00  0.00    +0.062 HD
ENDROOT
BRANCH   1  12
ATOM     12  C   UNL     1      19.277  54.799  28.960  0.00  0.00    +0.077 C 
ATOM     13  H   UNL     1      19.104  55.229  29.953  0.00  0.00    +0.064 HD
BRANCH  12  14
ATOM     14  C   UNL     1      17.934  54.601  28.271  0.00  0.00    -0.035 C 
ATOM     15  H   UNL     1      18.045  54.083  27.312  0.00  0.00    +0.026 HD
ATOM     16  H   UNL     1      17.280  53.974  28.888  0.00  0.00    +0.026 HD
ATOM     17  H   UNL     1      17.431  55.556  28.090  0.00  0.00    +0.026 HD
ENDBRANCH  12  14
BRANCH  12  18
ATOM     18  O   UNL     1      19.879  53.522  29.170  0.00  0.00    -0.387 OA
ATOM     19  H   UNL     1      20.840  53.666  29.220  0.00  0.00    +0.210 HD
ENDBRANCH  12  18
ENDBRANCH   1  12
TORSDOF 3
ENDMDL
MODEL 5
REMARK minimizedAffinity -5.84823418
REMARK minimizedRMSD -1
REMARK  Name = 
REMARK  3 active torsions:
REMARK  status: ('A' for Active; 'I' for Inactive)
REMARK    1  A    between atoms: C_1  and  C_2
REMARK    2  A    between atoms: C_2  and  O_3
REMARK    3  A    between atoms: C_2  and  C_4
REMARK                            x       y       z     vdW  Elec       q    Type
REMARK                         _______ _______ _______ _____ _____    ______ ____
ROOT
ATOM      1  C   UNL     1      20.221  55.684  28.173  0.00  0.00    -0.019 A 
ATOM      2  C   UNL     1      19.720  56.778  27.454  0.00  0.00    -0.056 A 
ATOM      3  C   UNL     1      20.579  57.604  26.726  0.00  0.00    -0.061 A 
ATOM      4  C   UNL     1      21.949  57.345  26.709  0.00  0.00    -0.062 A 
ATOM      5  C   UNL     1      22.461  56.261  27.418  0.00  0.00    -0.061 A 
ATOM      6  C   UNL     1      21.603  55.436  28.146  0.00  0.00    -0.056 A 
ATOM      7  H   UNL     1      18.654  56.996  27.452  0.00  0.00    +0.062 HD
ATOM      8  H   UNL     1      20.180  58.449  26.171  0.00  0.00    +0.062 HD
ATOM      9  H   UNL     1      22.616  57.989  26.141  0.00  0.00    +0.062 HD
ATOM     10  H   UNL     1      23.529  56.058  27.405  0.00  0.00    +0.062 HD
ATOM     11  H   UNL     1      22.017  54.592  28.696  0.00  0.00    +0.062 HD
ENDROOT
BRANCH   1  12
ATOM     12  C   UNL     1      19.285  54.794  28.961  0.00  0.00    +0.077 C 
ATOM     13  H   UNL     1      19.110  55.225  29.953  0.00  0.00    +0.064 HD
BRANCH  12  14
ATOM     14  C   UNL     1      17.943  54.595  28.270  0.00  0.00    -0.035 C 
ATOM     15  H   UNL     1      18.056  54.076  27.312  0.00  0.00    +0.026 HD
ATOM     16  H   UNL     1      17.288  53.968  28.886  0.00  0.00    +0.026 HD
ATOM     17  H   UNL     1      17.440  55.550  28.088  0.00  0.00    +0.026 HD
ENDBRANCH  12  14
BRANCH  12  18
ATOM     18  O   UNL     1      19.886  53.517  29.173  0.00  0.00    -0.387 OA
ATOM     19  H   UNL     1      20.847  53.660  29.225  0.00  0.00    +0.210 HD
ENDBRANCH  12  18
ENDBRANCH   1  12
TORSDOF 3
ENDMDL
MODEL 6
REMARK minimizedAffinity -5.52234221
REMARK minimizedRMSD -1
REMARK  Name = 
REMARK  3 active torsions:
REMARK  status: ('A' for Active; 'I' for Inactive)
REMARK    1  A    between atoms: C_1  and  C_2
REMARK    2  A    between atoms: C_2  and  O_3
REMARK    3  A    between atoms: C_2  and  C_4
REMARK                            x       y       z     vdW  Elec       q    Type
REMARK                         _______ _______ _______ _____ _____    ______ ____
ROOT
ATOM      1  C   UNL     1      21.933  55.931  27.578  0.00  0.00    -0.019 A 
ATOM      2  C   UNL     1      20.729  55.533  28.174  0.00  0.00    -0.056 A 
ATOM      3  C   UNL     1      20.618  54.282  28.787  0.00  0.00    -0.061 A 
ATOM      4  C   UNL     1      21.711  53.417  28.809  0.00  0.00    -0.062 A 
ATOM      5  C   UNL     1      22.914  53.800  28.221  0.00  0.00    -0.061 A 
ATOM      6  C   UNL     1      23.025  55.049  27.610  0.00  0.00    -0.056 A 
ATOM      7  H   UNL     1      19.865  56.194  28.169  0.00  0.00    +0.062 HD
ATOM      8  H   UNL     1      19.681  53.984  29.247  0.00  0.00    +0.062 HD
ATOM      9  H   UNL     1      21.624  52.444  29.287  0.00  0.00    +0.062 HD
ATOM     10  H   UNL     1      23.767  53.126  28.239  0.00  0.00    +0.062 HD
ATOM     11  H   UNL     1      23.971  55.335  27.153  0.00  0.00    +0.062 HD
ENDROOT
BRANCH   1  12
ATOM     12  C   UNL     1      22.046  57.286  26.915  0.00  0.00    +0.077 C 
ATOM     13  H   UNL     1      22.711  57.221  26.047  0.00  0.00    +0.064 HD
BRANCH  12  14
ATOM     14  C   UNL     1      20.699  57.831  26.459  0.00  0.00    -0.035 C 
ATOM     15  H   UNL     1      20.028  58.008  27.307  0.00  0.00    +0.026 HD
ATOM     16  H   UNL     1      20.830  58.799  25.962  0.00  0.00    +0.026 HD
ATOM     17  H   UNL     1      20.203  57.147  25.764  0.00  0.00    +0.026 HD
ENDBRANCH  12  14
BRANCH  12  18
ATOM     18  O   UNL     1      22.641  58.223  27.813  0.00  0.00    -0.387 OA
ATOM     19  H   UNL     1      23.251  57.722  28.382  0.00  0.00    +0.210 HD
ENDBRANCH  12  18
ENDBRANCH   1  12
TORSDOF 3
ENDMDL
MODEL 7
REMARK minimizedAffinity -5.51294756
REMARK minimizedRMSD -1
REMARK  Name = 
REMARK  3 active torsions:
REMARK  status: ('A' for Active; 'I' for Inactive)
REMARK    1  A    between atoms: C_1  and  C_2
REMARK    2  A    between atoms: C_2  and  O_3
REMARK    3  A    between atoms: C_2  and  C_4
REMARK                            x       y       z     vdW  Elec       q    Type
REMARK                         _______ _______ _______ _____ _____    ______ ____
ROOT
ATOM      1  C   UNL     1      21.891  55.938  27.579  0.00  0.00    -0.019 A 
ATOM      2  C   UNL     1      22.984  55.061  27.613  0.00  0.00    -0.056 A 
ATOM      3  C   UNL     1      22.875  53.813  28.232  0.00  0.00    -0.061 A 
ATOM      4  C   UNL     1      21.671  53.430  28.822  0.00  0.00    -0.062 A 
ATOM      5  C   UNL     1      20.577  54.291  28.795  0.00  0.00    -0.061 A 
ATOM      6  C   UNL     1      20.686  55.538  28.177  0.00  0.00    -0.056 A 
ATOM      7  H   UNL     1      23.931  55.340  27.157  0.00  0.00    +0.062 HD
ATOM      8  H   UNL     1      23.727  53.141  28.252  0.00  0.00    +0.062 HD
ATOM      9  H   UNL     1      21.588  52.458  29.303  0.00  0.00    +0.062 HD
ATOM     10  H   UNL     1      19.638  53.993  29.254  0.00  0.00    +0.062 HD
ATOM     11  H   UNL     1      19.823  56.201  28.163  0.00  0.00    +0.062 HD
ENDROOT
BRANCH   1  12
ATOM     12  C   UNL     1      22.017  57.289  26.908  0.00  0.00    +0.077 C 
ATOM     13  H   UNL     1      22.681  57.212  26.041  0.00  0.00    +0.064 HD
BRANCH  12  14
ATOM     14  C   UNL     1      20.675  57.844  26.449  0.00  0.00    -0.035 C 
ATOM     15  H   UNL     1      20.006  58.032  27.296  0.00  0.00    +0.026 HD
ATOM     16  H   UNL     1      20.815  58.807  25.946  0.00  0.00    +0.026 HD
ATOM     17  H   UNL     1      20.173  57.160  25.758  0.00  0.00    +0.026 HD
ENDBRANCH  12  14
BRANCH  12  18
ATOM     18  O   UNL     1      22.620  58.225  27.801  0.00  0.00    -0.387 OA
ATOM     19  H   UNL     1      23.226  57.722  28.373  0.00  0.00    +0.210 HD
ENDBRANCH  12  18
ENDBRANCH   1  12
TORSDOF 3
ENDMDL
MODEL 8
REMARK minimizedAffinity -5.46904564
REMARK minimizedRMSD -1
REMARK  Name = 
REMARK  3 active torsions:
REMARK  status: ('A' for Active; 'I' for Inactive)
REMARK    1  A    between atoms: C_1  and  C_2
REMARK    2  A    between atoms: C_2  and  O_3
REMARK    3  A    between atoms: C_2  and  C_4
REMARK                            x       y       z     vdW  Elec       q    Type
REMARK                         _______ _______ _______ _____ _____    ______ ____
ROOT
ATOM      1  C   UNL     1      22.194  55.899  27.502  0.00  0.00    -0.019 A 
ATOM      2  C   UNL     1      22.187  57.125  26.823  0.00  0.00    -0.056 A 
ATOM      3  C   UNL     1      21.028  57.904  26.773  0.00  0.00    -0.061 A 
ATOM      4  C   UNL     1      19.864  57.463  27.402  0.00  0.00    -0.062 A 
ATOM      5  C   UNL     1      19.857  56.247  28.080  0.00  0.00    -0.061 A 
ATOM      6  C   UNL     1      21.015  55.470  28.130  0.00  0.00    -0.056 A 
ATOM      7  H   UNL     1      23.086  57.488  26.328  0.00  0.00    +0.062 HD
ATOM      8  H   UNL     1      21.033  58.853  26.245  0.00  0.00    +0.062 HD
ATOM      9  H   UNL     1      18.963  58.070  27.362  0.00  0.00    +0.062 HD
ATOM     10  H   UNL     1      18.950  55.903  28.572  0.00  0.00    +0.062 HD
ATOM     11  H   UNL     1      20.995  54.521  28.664  0.00  0.00    +0.062 HD
ENDROOT
BRANCH   1  12
ATOM     12  C   UNL     1      23.453  55.060  27.551  0.00  0.00    +0.077 C 
ATOM     13  H   UNL     1      24.198  55.547  28.189  0.00  0.00    +0.064 HD
BRANCH  12  14
ATOM     14  C   UNL     1      23.201  53.654  28.077  0.00  0.00    -0.035 C 
ATOM     15  H   UNL     1      22.535  53.089  27.416  0.00  0.00    +0.026 HD
ATOM     16  H   UNL     1      24.141  53.092  28.121  0.00  0.00    +0.026 HD
ATOM     17  H   UNL     1      22.759  53.673  29.078  0.00  0.00    +0.026 HD
ENDBRANCH  12  14
BRANCH  12  18
ATOM     18  O   UNL     1      24.031  54.968  26.249  0.00  0.00    -0.387 OA
ATOM     19  H   UNL     1      23.816  55.795  25.783  0.00  0.00    +0.210 HD
ENDBRANCH  12  18
ENDBRANCH   1  12
TORSDOF 3
ENDMDL
MODEL 9
REMARK minimizedAffinity -5.46691895
REMARK minimizedRMSD -1
REMARK  Name = 
REMARK  3 active torsions:
REMARK  status: ('A' for Active; 'I' for Inactive)
REMARK    1  A    between atoms: C_1  and  C_2
REMARK    2  A    between atoms: C_2  and  O_3
REMARK    3  A    between atoms: C_2  and  C_4
REMARK                            x       y       z     vdW  Elec       q    Type
REMARK                         _______ _______ _______ _____ _____    ______ ____
ROOT
ATOM      1  C   UNL     1      22.206  55.896  27.487  0.00  0.00    -0.019 A 
ATOM      2  C   UNL     1      21.038  55.456  28.124  0.00  0.00    -0.056 A 
ATOM      3  C   UNL     1      19.873  56.226  28.085  0.00  0.00    -0.061 A 
ATOM      4  C   UNL     1      19.864  57.444  27.406  0.00  0.00    -0.062 A 
ATOM      5  C   UNL     1      21.018  57.892  26.767  0.00  0.00    -0.061 A 
ATOM      6  C   UNL     1      22.181  57.123  26.806  0.00  0.00    -0.056 A 
ATOM      7  H   UNL     1      21.023  54.507  28.658  0.00  0.00    +0.062 HD
ATOM      8  H   UNL     1      18.973  55.876  28.581  0.00  0.00    +0.062 HD
ATOM      9  H   UNL     1      18.957  58.042  27.375  0.00  0.00    +0.062 HD
ATOM     10  H   UNL     1      21.011  58.842  26.236  0.00  0.00    +0.062 HD
ATOM     11  H   UNL     1      23.076  57.486  26.303  0.00  0.00    +0.062 HD
ENDROOT
BRANCH   1  12
ATOM     12  C   UNL     1      23.464  55.057  27.535  0.00  0.00    +0.077 C 
ATOM     13  H   UNL     1      24.214  55.548  28.165  0.00  0.00    +0.064 HD
BRANCH  12  14
ATOM     14  C   UNL     1      23.215  53.654  28.073  0.00  0.00    -0.035 C 
ATOM     15  H   UNL     1      22.545  53.085  27.420  0.00  0.00    +0.026 HD
ATOM     16  H   UNL     1      24.155  53.092  28.117  0.00  0.00    +0.026 HD
ATOM     17  H   UNL     1      22.779  53.681  29.077  0.00  0.00    +0.026 HD
ENDBRANCH  12  14
BRANCH  12  18
ATOM     18  O   UNL     1      24.035  54.954  26.231  0.00  0.00    -0.387 OA
ATOM     19  H   UNL     1      23.818  55.778  25.760  0.00  0.00    +0.210 HD
ENDBRANCH  12  18
ENDBRANCH   1  12
TORSDOF 3
ENDMDL
