MODEL 1
REMARK minimizedAffinity -5.29472208
REMARK minimizedRMSD -1
REMARK  Name = 
REMARK  3 active torsions:
REMARK  status: ('A' for Active; 'I' for Inactive)
REMARK    1  A    between atoms: C_1  and  C_2
REMARK    2  A    between atoms: C_2  and  O_3
REMARK    3  A    between atoms: C_2  and  C_4
REMARK                            x       y       z     vdW  Elec       q    Type
REMARK                         _______ _______ _______ _____ _____    ______ ____
ROOT
ATOM      1  C   UNL     1      20.598  54.447  28.071  0.00  0.00    -0.019 A 
ATOM      2  C   UNL     1      20.867  54.272  26.706  0.00  0.00    -0.056 A 
ATOM      3  C   UNL     1      22.152  53.938  26.273  0.00  0.00    -0.061 A 
ATOM      4  C   UNL     1      23.181  53.775  27.198  0.00  0.00    -0.062 A 
ATOM      5  C   UNL     1      22.927  53.947  28.558  0.00  0.00    -0.061 A 
ATOM      6  C   UNL     1      21.644  54.281  28.992  0.00  0.00    -0.056 A 
ATOM      7  H   UNL     1      20.078  54.396  25.967  0.00  0.00    +0.062 HD
ATOM      8  H   UNL     1      22.350  53.805  25.213  0.00  0.00    +0.062 HD
ATOM      9  H   UNL     1      24.181  53.516  26.860  0.00  0.00    +0.062 HD
ATOM     10  H   UNL     1      23.730  53.822  29.281  0.00  0.00    +0.062 HD
ATOM     11  H   UNL     1      21.460  54.412  30.057  0.00  0.00    +0.062 HD
ENDROOT
BRANCH   1  12
ATOM     12  C   UNL     1      19.202  54.809  28.534  0.00  0.00    +0.077 C 
ATOM     13  H   UNL     1      18.550  54.956  27.665  0.00  0.00    +0.064 HD
BRANCH  12  14
ATOM     14  C   UNL     1      19.175  56.069  29.387  0.00  0.00    -0.035 C 
ATOM     15  H   UNL     1      19.736  55.937  30.319  0.00  0.00    +0.026 HD
ATOM     16  H   UNL     1      18.146  56.308  29.677  0.00  0.00    +0.026 HD
ATOM     17  H   UNL     1      19.594  56.926  28.849  0.00  0.00    +0.026 HD
ENDBRANCH  12  14
BRANCH  12  18
ATOM     18  O   UNL     1      18.642  53.733  29.284  0.00  0.00    -0.387 OA
ATOM     19  H   UNL     1      19.017  52.910  28.925  0.00  0.00    +0.210 HD
ENDBRANCH  12  18
ENDBRANCH   1  12
TORSDOF 3
ENDMDL
MODEL 2
REMARK minimizedAffinity -5.29343987
REMARK minimizedRMSD -1
REMARK  Name = 
REMARK  3 active torsions:
REMARK  status: ('A' for Active; 'I' for Inactive)
REMARK    1  A    between atoms: C_1  and  C_2
REMARK    2  A    between atoms: C_2  and  O_3
REMARK    3  A    between atoms: C_2  and  C_4
REMARK                            x       y       z     vdW  Elec       q    Type
REMARK                         _______ _______ _______ _____ _____    ______ ____
ROOT
ATOM      1  C   UNL     1      20.602  54.451  28.058  0.00  0.00    -0.019 A 
ATOM      2  C   UNL     1      21.642  54.290  28.984  0.00  0.00    -0.056 A 
ATOM      3  C   UNL     1      22.928  53.954  28.556  0.00  0.00    -0.061 A 
ATOM      4  C   UNL     1      23.188  53.775  27.199  0.00  0.00    -0.062 A 
ATOM      5  C   UNL     1      22.164  53.931  26.268  0.00  0.00    -0.061 A 
ATOM      6  C   UNL     1      20.878  54.267  26.695  0.00  0.00    -0.056 A 
ATOM      7  H   UNL     1      21.460  54.423  30.049  0.00  0.00    +0.062 HD
ATOM      8  H   UNL     1      23.727  53.831  29.282  0.00  0.00    +0.062 HD
ATOM      9  H   UNL     1      24.190  53.513  26.867  0.00  0.00    +0.062 HD
ATOM     10  H   UNL     1      22.365  53.791  25.209  0.00  0.00    +0.062 HD
ATOM     11  H   UNL     1      20.087  54.387  25.956  0.00  0.00    +0.062 HD
ENDROOT
BRANCH   1  12
ATOM     12  C   UNL     1      19.210  54.817  28.529  0.00  0.00    +0.077 C 
ATOM     13  H   UNL     1      18.555  54.970  27.664  0.00  0.00    +0.064 HD
BRANCH  12  14
ATOM     14  C   UNL     1      19.193  56.074  29.388  0.00  0.00    -0.035 C 
ATOM     15  H   UNL     1      19.757  55.935  30.317  0.00  0.00    +0.026 HD
ATOM     16  H   UNL     1      18.166  56.316  29.683  0.00  0.00    +0.026 HD
ATOM     17  H   UNL     1      19.613  56.931  28.852  0.00  0.00    +0.026 HD
ENDBRANCH  12  14
BRANCH  12  18
ATOM     18  O   UNL     1      18.648  53.741  29.277  0.00  0.00    -0.387 OA
ATOM     19  H   UNL     1      19.018  52.918  28.914  0.00  0.00    +0.210 HD
ENDBRANCH  12  18
ENDBRANCH   1  12
TORSDOF 3
ENDMDL
MODEL 3
REMARK minimizedAffinity -5.10293674
REMARK minimizedRMSD -1
REMARK  Name = 
REMARK  3 active torsions:
REMARK  status: ('A' for Active; 'I' for Inactive)
REMARK    1  A    between atoms: C_1  and  C_2
REMARK    2  A    between atoms: C_2  and  O_3
REMARK    3  A    between atoms: C_2  and  C_4
REMARK                            x       y       z     vdW  Elec       q    Type
REMARK                         _______ _______ _______ _____ _____    ______ ____
ROOT
ATOM      1  C   UNL     1      21.940  53.972  27.778  0.00  0.00    -0.019 A 
ATOM      2  C   UNL     1      21.118  54.245  26.676  0.00  0.00    -0.056 A 
ATOM      3  C   UNL     1      19.895  54.897  26.846  0.00  0.00    -0.061 A 
ATOM      4  C   UNL     1      19.480  55.283  28.119  0.00  0.00    -0.062 A 
ATOM      5  C   UNL     1      20.287  55.017  29.224  0.00  0.00    -0.061 A 
ATOM      6  C   UNL     1      21.509  54.366  29.055  0.00  0.00    -0.056 A 
ATOM      7  H   UNL     1      21.422  53.951  25.673  0.00  0.00    +0.062 HD
ATOM      8  H   UNL     1      19.265  55.103  25.985  0.00  0.00    +0.062 HD
ATOM      9  H   UNL     1      18.527  55.790  28.251  0.00  0.00    +0.062 HD
ATOM     10  H   UNL     1      19.964  55.316  30.218  0.00  0.00    +0.062 HD
ATOM     11  H   UNL     1      22.130  54.165  29.926  0.00  0.00    +0.062 HD
ENDROOT
BRANCH   1  12
ATOM     12  C   UNL     1      23.265  53.266  27.587  0.00  0.00    +0.077 C 
ATOM     13  H   UNL     1      23.159  52.204  27.836  0.00  0.00    +0.064 HD
BRANCH  12  14
ATOM     14  C   UNL     1      24.376  53.861  28.440  0.00  0.00    -0.035 C 
ATOM     15  H   UNL     1      24.588  54.899  28.160  0.00  0.00    +0.026 HD
ATOM     16  H   UNL     1      25.308  53.304  28.291  0.00  0.00    +0.026 HD
ATOM     17  H   UNL     1      24.121  53.835  29.505  0.00  0.00    +0.026 HD
ENDBRANCH  12  14
BRANCH  12  18
ATOM     18  O   UNL     1      23.657  53.324  26.217  0.00  0.00    -0.387 OA
ATOM     19  H   UNL     1      22.841  53.332  25.687  0.00  0.00    +0.210 HD
ENDBRANCH  12  18
ENDBRANCH   1  12
TORSDOF 3
ENDMDL
MODEL 4
REMARK minimizedAffinity -5.10024595
REMARK minimizedRMSD -1
REMARK  Name = 
REMARK  3 active torsions:
REMARK  status: ('A' for Active; 'I' for Inactive)
REMARK    1  A    between atoms: C_1  and  C_2
REMARK    2  A    between atoms: C_2  and  O_3
REMARK    3  A    between atoms: C_2  and  C_4
REMARK                            x       y       z     vdW  Elec       q    Type
REMARK                         _______ _______ _______ _____ _____    ______ ____
ROOT
ATOM      1  C   UNL     1      21.952  54.218  27.929  0.00  0.00    -0.019 A 
ATOM      2  C   UNL     1      21.435  54.381  29.222  0.00  0.00    -0.056 A 
ATOM      3  C   UNL     1      20.079  54.652  29.415  0.00  0.00    -0.061 A 
ATOM      4  C   UNL     1      19.225  54.763  28.320  0.00  0.00    -0.062 A 
ATOM      5  C   UNL     1      19.726  54.603  27.030  0.00  0.00    -0.061 A 
ATOM      6  C   UNL     1      21.081  54.332  26.835  0.00  0.00    -0.056 A 
ATOM      7  H   UNL     1      22.085  54.300  30.091  0.00  0.00    +0.062 HD
ATOM      8  H   UNL     1      19.689  54.778  30.422  0.00  0.00    +0.062 HD
ATOM      9  H   UNL     1      18.170  54.975  28.472  0.00  0.00    +0.062 HD
ATOM     10  H   UNL     1      19.061  54.691  26.174  0.00  0.00    +0.062 HD
ATOM     11  H   UNL     1      21.458  54.210  25.821  0.00  0.00    +0.062 HD
ENDROOT
BRANCH   1  12
ATOM     12  C   UNL     1      23.423  53.922  27.726  0.00  0.00    +0.077 C 
ATOM     13  H   UNL     1      23.992  54.859  27.728  0.00  0.00    +0.064 HD
BRANCH  12  14
ATOM     14  C   UNL     1      23.699  53.182  26.425  0.00  0.00    -0.035 C 
ATOM     15  H   UNL     1      23.228  52.193  26.416  0.00  0.00    +0.026 HD
ATOM     16  H   UNL     1      24.775  53.014  26.306  0.00  0.00    +0.026 HD
ATOM     17  H   UNL     1      23.336  53.745  25.559  0.00  0.00    +0.026 HD
ENDBRANCH  12  14
BRANCH  12  18
ATOM     18  O   UNL     1      23.920  53.144  28.813  0.00  0.00    -0.387 OA
ATOM     19  H   UNL     1      23.409  53.396  29.601  0.00  0.00    +0.210 HD
ENDBRANCH  12  18
ENDBRANCH   1  12
TORSDOF 3
ENDMDL
MODEL 5
REMARK minimizedAffinity -5.09396076
REMARK minimizedRMSD -1
REMARK  Name = 
REMARK  3 active torsions:
REMARK  status: ('A' for Active; 'I' for Inactive)
REMARK    1  A    between atoms: C_1  and  C_2
REMARK    2  A    between atoms: C_2  and  O_3
REMARK    3  A    between atoms: C_2  and  C_4
REMARK                            x       y       z     vdW  Elec       q    Type
REMARK                         _______ _______ _______ _____ _____    ______ ____
ROOT
ATOM      1  C   UNL     1      21.959  54.210  27.918  0.00  0.00    -0.019 A 
ATOM      2  C   UNL     1      21.093  54.338  26.823  0.00  0.00    -0.056 A 
ATOM      3  C   UNL     1      19.739  54.617  27.016  0.00  0.00    -0.061 A 
ATOM      4  C   UNL     1      19.235  54.771  28.305  0.00  0.00    -0.062 A 
ATOM      5  C   UNL     1      20.083  54.647  29.404  0.00  0.00    -0.061 A 
ATOM      6  C   UNL     1      21.437  54.368  29.212  0.00  0.00    -0.056 A 
ATOM      7  H   UNL     1      21.467  54.219  25.807  0.00  0.00    +0.062 HD
ATOM      8  H   UNL     1      19.077  54.713  26.160  0.00  0.00    +0.062 HD
ATOM      9  H   UNL     1      18.180  54.988  28.455  0.00  0.00    +0.062 HD
ATOM     10  H   UNL     1      19.691  54.766  30.411  0.00  0.00    +0.062 HD
ATOM     11  H   UNL     1      22.089  54.274  30.079  0.00  0.00    +0.062 HD
ENDROOT
BRANCH   1  12
ATOM     12  C   UNL     1      23.426  53.909  27.702  0.00  0.00    +0.077 C 
ATOM     13  H   UNL     1      24.001  54.842  27.709  0.00  0.00    +0.064 HD
BRANCH  12  14
ATOM     14  C   UNL     1      23.688  53.180  26.391  0.00  0.00    -0.035 C 
ATOM     15  H   UNL     1      23.212  52.194  26.375  0.00  0.00    +0.026 HD
ATOM     16  H   UNL     1      24.763  53.007  26.262  0.00  0.00    +0.026 HD
ATOM     17  H   UNL     1      23.323  53.755  25.533  0.00  0.00    +0.026 HD
ENDBRANCH  12  14
BRANCH  12  18
ATOM     18  O   UNL     1      23.927  53.116  28.776  0.00  0.00    -0.387 OA
ATOM     19  H   UNL     1      23.423  53.363  29.571  0.00  0.00    +0.210 HD
ENDBRANCH  12  18
ENDBRANCH   1  12
TORSDOF 3
ENDMDL
MODEL 6
REMARK minimizedAffinity -5.04986906
REMARK minimizedRMSD -1
REMARK  Name = 
REMARK  3 active torsions:
REMARK  status: ('A' for Active; 'I' for Inactive)
REMARK    1  A    between atoms: C_1  and  C_2
REMARK    2  A    between atoms: C_2  and  O_3
REMARK    3  A    between atoms: C_2  and  C_4
REMARK                            x       y       z     vdW  Elec       q    Type
REMARK                         _______ _______ _______ _____ _____    ______ ____
ROOT
ATOM      1  C   UNL     1      22.417  53.672  27.679  0.00  0.00    -0.019 A 
ATOM      2  C   UNL     1      22.027  53.997  28.986  0.00  0.00    -0.056 A 
ATOM      3  C   UNL     1      20.809  54.634  29.226  0.00  0.00    -0.061 A 
ATOM      4  C   UNL     1      19.967  54.955  28.164  0.00  0.00    -0.062 A 
ATOM      5  C   UNL     1      20.341  54.639  26.859  0.00  0.00    -0.061 A 
ATOM      6  C   UNL     1      21.559  54.001  26.618  0.00  0.00    -0.056 A 
ATOM      7  H   UNL     1      22.671  53.756  29.830  0.00  0.00    +0.062 HD
ATOM      8  H   UNL     1      20.517  54.883  30.243  0.00  0.00    +0.062 HD
ATOM      9  H   UNL     1      19.019  55.453  28.352  0.00  0.00    +0.062 HD
ATOM     10  H   UNL     1      19.686  54.890  26.029  0.00  0.00    +0.062 HD
ATOM     11  H   UNL     1      21.839  53.760  25.594  0.00  0.00    +0.062 HD
ENDROOT
BRANCH   1  12
ATOM     12  C   UNL     1      23.739  52.979  27.425  0.00  0.00    +0.077 C 
ATOM     13  H   UNL     1      23.624  51.898  27.572  0.00  0.00    +0.064 HD
BRANCH  12  14
ATOM     14  C   UNL     1      24.850  53.483  28.336  0.00  0.00    -0.035 C 
ATOM     15  H   UNL     1      25.068  54.542  28.156  0.00  0.00    +0.026 HD
ATOM     16  H   UNL     1      25.779  52.937  28.137  0.00  0.00    +0.026 HD
ATOM     17  H   UNL     1      24.590  53.357  29.392  0.00  0.00    +0.026 HD
ENDBRANCH  12  14
BRANCH  12  18
ATOM     18  O   UNL     1      24.136  53.165  26.068  0.00  0.00    -0.387 OA
ATOM     19  H   UNL     1      23.322  53.229  25.539  0.00  0.00    +0.210 HD
ENDBRANCH  12  18
ENDBRANCH   1  12
TORSDOF 3
ENDMDL
MODEL 7
REMARK minimizedAffinity -4.87887955
REMARK minimizedRMSD -1
REMARK  Name = 
REMARK  3 active torsions:
REMARK  status: ('A' for Active; 'I' for Inactive)
REMARK    1  A    between atoms: C_1  and  C_2
REMARK    2  A    between atoms: C_2  and  O_3
REMARK    3  A    between atoms: C_2  and  C_4
REMARK                            x       y       z     vdW  Elec       q    Type
REMARK                         _______ _______ _______ _____ _____    ______ ____
ROOT
ATOM      1  C   UNL     1      21.683  54.186  27.779  0.00  0.00    -0.019 A 
ATOM      2  C   UNL     1      22.214  54.003  26.494  0.00  0.00    -0.056 A 
ATOM      3  C   UNL     1      23.331  53.190  26.297  0.00  0.00    -0.061 A 
ATOM      4  C   UNL     1      23.932  52.552  27.380  0.00  0.00    -0.062 A 
ATOM      5  C   UNL     1      23.415  52.725  28.662  0.00  0.00    -0.061 A 
ATOM      6  C   UNL     1      22.298  53.537  28.861  0.00  0.00    -0.056 A 
ATOM      7  H   UNL     1      21.761  54.494  25.635  0.00  0.00    +0.062 HD
ATOM      8  H   UNL     1      23.735  53.056  25.297  0.00  0.00    +0.062 HD
ATOM      9  H   UNL     1      24.803  51.920  27.225  0.00  0.00    +0.062 HD
ATOM     10  H   UNL     1      23.883  52.229  29.509  0.00  0.00    +0.062 HD
ATOM     11  H   UNL     1      21.904  53.663  29.869  0.00  0.00    +0.062 HD
ENDROOT
BRANCH   1  12
ATOM     12  C   UNL     1      20.470  55.067  27.986  0.00  0.00    +0.077 C 
ATOM     13  H   UNL     1      20.776  56.120  28.008  0.00  0.00    +0.064 HD
BRANCH  12  14
ATOM     14  C   UNL     1      19.724  54.746  29.274  0.00  0.00    -0.035 C 
ATOM     15  H   UNL     1      19.313  53.731  29.259  0.00  0.00    +0.026 HD
ATOM     16  H   UNL     1      18.872  55.424  29.397  0.00  0.00    +0.026 HD
ATOM     17  H   UNL     1      20.376  54.843  30.149  0.00  0.00    +0.026 HD
ENDBRANCH  12  14
BRANCH  12  18
ATOM     18  O   UNL     1      19.571  54.929  26.888  0.00  0.00    -0.387 OA
ATOM     19  H   UNL     1      20.110  54.737  26.101  0.00  0.00    +0.210 HD
ENDBRANCH  12  18
ENDBRANCH   1  12
TORSDOF 3
ENDMDL
MODEL 8
REMARK minimizedAffinity -4.78866482
REMARK minimizedRMSD -1
REMARK  Name = 
REMARK  3 active torsions:
REMARK  status: ('A' for Active; 'I' for Inactive)
REMARK    1  A    between atoms: C_1  and  C_2
REMARK    2  A    between atoms: C_2  and  O_3
REMARK    3  A    between atoms: C_2  and  C_4
REMARK                            x       y       z     vdW  Elec       q    Type
REMARK                         _______ _______ _______ _____ _____    ______ ____
ROOT
ATOM      1  C   UNL     1      20.520  54.536  28.263  0.00  0.00    -0.019 A 
ATOM      2  C   UNL     1      19.400  53.783  28.643  0.00  0.00    -0.056 A 
ATOM      3  C   UNL     1      18.412  54.340  29.456  0.00  0.00    -0.061 A 
ATOM      4  C   UNL     1      18.532  55.656  29.898  0.00  0.00    -0.062 A 
ATOM      5  C   UNL     1      19.640  56.416  29.529  0.00  0.00    -0.061 A 
ATOM      6  C   UNL     1      20.628  55.859  28.716  0.00  0.00    -0.056 A 
ATOM      7  H   UNL     1      19.288  52.752  28.309  0.00  0.00    +0.062 HD
ATOM      8  H   UNL     1      17.548  53.748  29.745  0.00  0.00    +0.062 HD
ATOM      9  H   UNL     1      17.762  56.089  30.532  0.00  0.00    +0.062 HD
ATOM     10  H   UNL     1      19.735  57.442  29.875  0.00  0.00    +0.062 HD
ATOM     11  H   UNL     1      21.488  56.465  28.434  0.00  0.00    +0.062 HD
ENDROOT
BRANCH   1  12
ATOM     12  C   UNL     1      21.588  53.925  27.380  0.00  0.00    +0.077 C 
ATOM     13  H   UNL     1      21.486  52.834  27.377  0.00  0.00    +0.064 HD
BRANCH  12  14
ATOM     14  C   UNL     1      22.997  54.286  27.828  0.00  0.00    -0.035 C 
ATOM     15  H   UNL     1      23.180  55.364  27.756  0.00  0.00    +0.026 HD
ATOM     16  H   UNL     1      23.736  53.802  27.180  0.00  0.00    +0.026 HD
ATOM     17  H   UNL     1      23.181  53.972  28.861  0.00  0.00    +0.026 HD
ENDBRANCH  12  14
BRANCH  12  18
ATOM     18  O   UNL     1      21.411  54.353  26.031  0.00  0.00    -0.387 OA
ATOM     19  H   UNL     1      20.457  54.492  25.899  0.00  0.00    +0.210 HD
ENDBRANCH  12  18
ENDBRANCH   1  12
TORSDOF 3
ENDMDL
MODEL 9
REMARK minimizedAffinity -4.7604785
REMARK minimizedRMSD -1
REMARK  Name = 
REMARK  3 active torsions:
REMARK  status: ('A' for Active; 'I' for Inactive)
REMARK    1  A    between atoms: C_1  and  C_2
REMARK    2  A    between atoms: C_2  and  O_3
REMARK    3  A    between atoms: C_2  and  C_4
REMARK                            x       y       z     vdW  Elec       q    Type
REMARK                         _______ _______ _______ _____ _____    ______ ____
ROOT
ATOM      1  C   UNL     1      20.539  54.531  28.269  0.00  0.00    -0.019 A 
ATOM      2  C   UNL     1      20.653  55.861  28.699  0.00  0.00    -0.056 A 
ATOM      3  C   UNL     1      19.666  56.434  29.502  0.00  0.00    -0.061 A 
ATOM      4  C   UNL     1      18.555  55.686  29.885  0.00  0.00    -0.062 A 
ATOM      5  C   UNL     1      18.428  54.364  29.464  0.00  0.00    -0.061 A 
ATOM      6  C   UNL     1      19.414  53.790  28.661  0.00  0.00    -0.056 A 
ATOM      7  H   UNL     1      21.513  56.463  28.410  0.00  0.00    +0.062 HD
ATOM      8  H   UNL     1      19.764  57.466  29.830  0.00  0.00    +0.062 HD
ATOM      9  H   UNL     1      17.786  56.134  30.510  0.00  0.00    +0.062 HD
ATOM     10  H   UNL     1      17.560  53.779  29.760  0.00  0.00    +0.062 HD
ATOM     11  H   UNL     1      19.303  52.755  28.339  0.00  0.00    +0.062 HD
ENDROOT
BRANCH   1  12
ATOM     12  C   UNL     1      21.614  53.915  27.398  0.00  0.00    +0.077 C 
ATOM     13  H   UNL     1      21.518  52.823  27.408  0.00  0.00    +0.064 HD
BRANCH  12  14
ATOM     14  C   UNL     1      23.020  54.288  27.850  0.00  0.00    -0.035 C 
ATOM     15  H   UNL     1      23.198  55.366  27.765  0.00  0.00    +0.026 HD
ATOM     16  H   UNL     1      23.764  53.800  27.211  0.00  0.00    +0.026 HD
ATOM     17  H   UNL     1      23.200  53.988  28.887  0.00  0.00    +0.026 HD
ENDBRANCH  12  14
BRANCH  12  18
ATOM     18  O   UNL     1      21.442  54.326  26.044  0.00  0.00    -0.387 OA
ATOM     19  H   UNL     1      20.488  54.458  25.905  0.00  0.00    +0.210 HD
ENDBRANCH  12  18
ENDBRANCH   1  12
TORSDOF 3
ENDMDL
