MODEL 1
REMARK minimizedAffinity -5.33920956
REMARK minimizedRMSD -1
REMARK  Name = 
REMARK  3 active torsions:
REMARK  status: ('A' for Active; 'I' for Inactive)
REMARK    1  A    between atoms: C_1  and  C_2
REMARK    2  A    between atoms: C_2  and  O_3
REMARK    3  A    between atoms: C_2  and  C_4
REMARK                            x       y       z     vdW  Elec       q    Type
REMARK                         _______ _______ _______ _____ _____    ______ ____
ROOT
ATOM      1  C   UNL     1      20.762  54.365  28.452  0.00  0.00    -0.019 A 
ATOM      2  C   UNL     1      20.600  54.315  27.061  0.00  0.00    -0.056 A 
ATOM      3  C   UNL     1      21.698  54.094  26.225  0.00  0.00    -0.061 A 
ATOM      4  C   UNL     1      22.967  53.919  26.771  0.00  0.00    -0.062 A 
ATOM      5  C   UNL     1      23.143  53.966  28.152  0.00  0.00    -0.061 A 
ATOM      6  C   UNL     1      22.048  54.187  28.988  0.00  0.00    -0.056 A 
ATOM      7  H   UNL     1      19.617  54.447  26.614  0.00  0.00    +0.062 HD
ATOM      8  H   UNL     1      21.561  54.056  25.147  0.00  0.00    +0.062 HD
ATOM      9  H   UNL     1      23.821  53.746  26.121  0.00  0.00    +0.062 HD
ATOM     10  H   UNL     1      24.134  53.829  28.580  0.00  0.00    +0.062 HD
ATOM     11  H   UNL     1      22.199  54.221  30.066  0.00  0.00    +0.062 HD
ENDROOT
BRANCH   1  12
ATOM     12  C   UNL     1      19.570  54.607  29.352  0.00  0.00    +0.077 C 
ATOM     13  H   UNL     1      19.825  54.342  30.385  0.00  0.00    +0.064 HD
BRANCH  12  14
ATOM     14  C   UNL     1      19.093  56.052  29.320  0.00  0.00    -0.035 C 
ATOM     15  H   UNL     1      18.734  56.336  28.324  0.00  0.00    +0.026 HD
ATOM     16  H   UNL     1      18.249  56.189  30.004  0.00  0.00    +0.026 HD
ATOM     17  H   UNL     1      19.891  56.744  29.609  0.00  0.00    +0.026 HD
ENDBRANCH  12  14
BRANCH  12  18
ATOM     18  O   UNL     1      18.489  53.757  28.972  0.00  0.00    -0.387 OA
ATOM     19  H   UNL     1      18.880  52.942  28.613  0.00  0.00    +0.210 HD
ENDBRANCH  12  18
ENDBRANCH   1  12
TORSDOF 3
ENDMDL
MODEL 2
REMARK minimizedAffinity -5.3354373
REMARK minimizedRMSD -1
REMARK  Name = 
REMARK  3 active torsions:
REMARK  status: ('A' for Active; 'I' for Inactive)
REMARK    1  A    between atoms: C_1  and  C_2
REMARK    2  A    between atoms: C_2  and  O_3
REMARK    3  A    between atoms: C_2  and  C_4
REMARK                            x       y       z     vdW  Elec       q    Type
REMARK                         _______ _______ _______ _____ _____    ______ ____
ROOT
ATOM      1  C   UNL     1      20.759  54.367  28.445  0.00  0.00    -0.019 A 
ATOM      2  C   UNL     1      22.039  54.191  28.989  0.00  0.00    -0.056 A 
ATOM      3  C   UNL     1      23.139  53.968  28.157  0.00  0.00    -0.061 A 
ATOM      4  C   UNL     1      22.972  53.919  26.775  0.00  0.00    -0.062 A 
ATOM      5  C   UNL     1      21.705  54.092  26.221  0.00  0.00    -0.061 A 
ATOM      6  C   UNL     1      20.606  54.316  27.050  0.00  0.00    -0.056 A 
ATOM      7  H   UNL     1      22.191  54.228  30.065  0.00  0.00    +0.062 HD
ATOM      8  H   UNL     1      24.128  53.834  28.589  0.00  0.00    +0.062 HD
ATOM      9  H   UNL     1      23.828  53.746  26.129  0.00  0.00    +0.062 HD
ATOM     10  H   UNL     1      21.573  54.055  25.142  0.00  0.00    +0.062 HD
ATOM     11  H   UNL     1      19.622  54.450  26.604  0.00  0.00    +0.062 HD
ENDROOT
BRANCH   1  12
ATOM     12  C   UNL     1      19.571  54.607  29.350  0.00  0.00    +0.077 C 
ATOM     13  H   UNL     1      19.830  54.341  30.382  0.00  0.00    +0.064 HD
BRANCH  12  14
ATOM     14  C   UNL     1      19.093  56.052  29.323  0.00  0.00    -0.035 C 
ATOM     15  H   UNL     1      18.729  56.338  28.329  0.00  0.00    +0.026 HD
ATOM     16  H   UNL     1      18.251  56.187  30.011  0.00  0.00    +0.026 HD
ATOM     17  H   UNL     1      19.892  56.744  29.610  0.00  0.00    +0.026 HD
ENDBRANCH  12  14
BRANCH  12  18
ATOM     18  O   UNL     1      18.488  53.757  28.974  0.00  0.00    -0.387 OA
ATOM     19  H   UNL     1      18.878  52.942  28.612  0.00  0.00    +0.210 HD
ENDBRANCH  12  18
ENDBRANCH   1  12
TORSDOF 3
ENDMDL
MODEL 3
REMARK minimizedAffinity -5.23035574
REMARK minimizedRMSD -1
REMARK  Name = 
REMARK  3 active torsions:
REMARK  status: ('A' for Active; 'I' for Inactive)
REMARK    1  A    between atoms: C_1  and  C_2
REMARK    2  A    between atoms: C_2  and  O_3
REMARK    3  A    between atoms: C_2  and  C_4
REMARK                            x       y       z     vdW  Elec       q    Type
REMARK                         _______ _______ _______ _____ _____    ______ ____
ROOT
ATOM      1  C   UNL     1      21.029  54.326  27.621  0.00  0.00    -0.019 A 
ATOM      2  C   UNL     1      21.797  54.199  28.786  0.00  0.00    -0.056 A 
ATOM      3  C   UNL     1      23.128  53.782  28.717  0.00  0.00    -0.061 A 
ATOM      4  C   UNL     1      23.705  53.487  27.484  0.00  0.00    -0.062 A 
ATOM      5  C   UNL     1      22.953  53.609  26.318  0.00  0.00    -0.061 A 
ATOM      6  C   UNL     1      21.624  54.026  26.385  0.00  0.00    -0.056 A 
ATOM      7  H   UNL     1      21.366  54.426  29.759  0.00  0.00    +0.062 HD
ATOM      8  H   UNL     1      23.716  53.688  29.627  0.00  0.00    +0.062 HD
ATOM      9  H   UNL     1      24.742  53.163  27.431  0.00  0.00    +0.062 HD
ATOM     10  H   UNL     1      23.403  53.380  25.354  0.00  0.00    +0.062 HD
ATOM     11  H   UNL     1      21.048  54.117  25.465  0.00  0.00    +0.062 HD
ENDROOT
BRANCH   1  12
ATOM     12  C   UNL     1      19.587  54.777  27.701  0.00  0.00    +0.077 C 
ATOM     13  H   UNL     1      18.928  53.903  27.771  0.00  0.00    +0.064 HD
BRANCH  12  14
ATOM     14  C   UNL     1      19.321  55.687  28.892  0.00  0.00    -0.035 C 
ATOM     15  H   UNL     1      19.887  56.623  28.818  0.00  0.00    +0.026 HD
ATOM     16  H   UNL     1      18.263  55.967  28.928  0.00  0.00    +0.026 HD
ATOM     17  H   UNL     1      19.585  55.199  29.837  0.00  0.00    +0.026 HD
ENDBRANCH  12  14
BRANCH  12  18
ATOM     18  O   UNL     1      19.220  55.465  26.506  0.00  0.00    -0.387 OA
ATOM     19  H   UNL     1      19.743  55.076  25.783  0.00  0.00    +0.210 HD
ENDBRANCH  12  18
ENDBRANCH   1  12
TORSDOF 3
ENDMDL
MODEL 4
REMARK minimizedAffinity -5.22760487
REMARK minimizedRMSD -1
REMARK  Name = 
REMARK  3 active torsions:
REMARK  status: ('A' for Active; 'I' for Inactive)
REMARK    1  A    between atoms: C_1  and  C_2
REMARK    2  A    between atoms: C_2  and  O_3
REMARK    3  A    between atoms: C_2  and  C_4
REMARK                            x       y       z     vdW  Elec       q    Type
REMARK                         _______ _______ _______ _____ _____    ______ ____
ROOT
ATOM      1  C   UNL     1      21.056  54.326  27.639  0.00  0.00    -0.019 A 
ATOM      2  C   UNL     1      21.637  54.032  26.398  0.00  0.00    -0.056 A 
ATOM      3  C   UNL     1      22.965  53.606  26.318  0.00  0.00    -0.061 A 
ATOM      4  C   UNL     1      23.726  53.470  27.477  0.00  0.00    -0.062 A 
ATOM      5  C   UNL     1      23.162  53.759  28.717  0.00  0.00    -0.061 A 
ATOM      6  C   UNL     1      21.835  54.183  28.799  0.00  0.00    -0.056 A 
ATOM      7  H   UNL     1      21.060  54.130  25.481  0.00  0.00    +0.062 HD
ATOM      8  H   UNL     1      23.405  53.380  25.350  0.00  0.00    +0.062 HD
ATOM      9  H   UNL     1      24.759  53.139  27.414  0.00  0.00    +0.062 HD
ATOM     10  H   UNL     1      23.754  53.652  29.623  0.00  0.00    +0.062 HD
ATOM     11  H   UNL     1      21.407  54.405  29.775  0.00  0.00    +0.062 HD
ENDROOT
BRANCH   1  12
ATOM     12  C   UNL     1      19.618  54.787  27.720  0.00  0.00    +0.077 C 
ATOM     13  H   UNL     1      18.954  53.919  27.806  0.00  0.00    +0.064 HD
BRANCH  12  14
ATOM     14  C   UNL     1      19.363  55.717  28.898  0.00  0.00    -0.035 C 
ATOM     15  H   UNL     1      19.935  56.648  28.807  0.00  0.00    +0.026 HD
ATOM     16  H   UNL     1      18.307  56.005  28.935  0.00  0.00    +0.026 HD
ATOM     17  H   UNL     1      19.628  55.242  29.849  0.00  0.00    +0.026 HD
ENDBRANCH  12  14
BRANCH  12  18
ATOM     18  O   UNL     1      19.250  55.459  26.516  0.00  0.00    -0.387 OA
ATOM     19  H   UNL     1      19.766  55.056  25.796  0.00  0.00    +0.210 HD
ENDBRANCH  12  18
ENDBRANCH   1  12
TORSDOF 3
ENDMDL
MODEL 5
REMARK minimizedAffinity -5.14571953
REMARK minimizedRMSD -1
REMARK  Name = 
REMARK  3 active torsions:
REMARK  status: ('A' for Active; 'I' for Inactive)
REMARK    1  A    between atoms: C_1  and  C_2
REMARK    2  A    between atoms: C_2  and  O_3
REMARK    3  A    between atoms: C_2  and  C_4
REMARK                            x       y       z     vdW  Elec       q    Type
REMARK                         _______ _______ _______ _____ _____    ______ ____
ROOT
ATOM      1  C   UNL     1      21.883  54.031  27.901  0.00  0.00    -0.019 A 
ATOM      2  C   UNL     1      21.092  54.298  26.775  0.00  0.00    -0.056 A 
ATOM      3  C   UNL     1      19.841  54.905  26.914  0.00  0.00    -0.061 A 
ATOM      4  C   UNL     1      19.368  55.251  28.177  0.00  0.00    -0.062 A 
ATOM      5  C   UNL     1      20.144  54.992  29.305  0.00  0.00    -0.061 A 
ATOM      6  C   UNL     1      21.394  54.387  29.169  0.00  0.00    -0.056 A 
ATOM      7  H   UNL     1      21.443  54.037  25.780  0.00  0.00    +0.062 HD
ATOM      8  H   UNL     1      19.236  55.108  26.033  0.00  0.00    +0.062 HD
ATOM      9  H   UNL     1      18.395  55.724  28.284  0.00  0.00    +0.062 HD
ATOM     10  H   UNL     1      19.777  55.262  30.293  0.00  0.00    +0.062 HD
ATOM     11  H   UNL     1      21.989  54.190  30.059  0.00  0.00    +0.062 HD
ENDROOT
BRANCH   1  12
ATOM     12  C   UNL     1      23.236  53.373  27.746  0.00  0.00    +0.077 C 
ATOM     13  H   UNL     1      23.235  52.398  28.249  0.00  0.00    +0.064 HD
BRANCH  12  14
ATOM     14  C   UNL     1      23.628  53.171  26.289  0.00  0.00    -0.035 C 
ATOM     15  H   UNL     1      23.738  54.128  25.765  0.00  0.00    +0.026 HD
ATOM     16  H   UNL     1      24.599  52.668  26.222  0.00  0.00    +0.026 HD
ATOM     17  H   UNL     1      22.886  52.569  25.754  0.00  0.00    +0.026 HD
ENDBRANCH  12  14
BRANCH  12  18
ATOM     18  O   UNL     1      24.240  54.158  28.388  0.00  0.00    -0.387 OA
ATOM     19  H   UNL     1      23.815  54.603  29.141  0.00  0.00    +0.210 HD
ENDBRANCH  12  18
ENDBRANCH   1  12
TORSDOF 3
ENDMDL
MODEL 6
REMARK minimizedAffinity -5.13867712
REMARK minimizedRMSD -1
REMARK  Name = 
REMARK  3 active torsions:
REMARK  status: ('A' for Active; 'I' for Inactive)
REMARK    1  A    between atoms: C_1  and  C_2
REMARK    2  A    between atoms: C_2  and  O_3
REMARK    3  A    between atoms: C_2  and  C_4
REMARK                            x       y       z     vdW  Elec       q    Type
REMARK                         _______ _______ _______ _____ _____    ______ ____
ROOT
ATOM      1  C   UNL     1      21.834  54.078  27.842  0.00  0.00    -0.019 A 
ATOM      2  C   UNL     1      21.385  54.498  29.101  0.00  0.00    -0.056 A 
ATOM      3  C   UNL     1      20.152  55.141  29.238  0.00  0.00    -0.061 A 
ATOM      4  C   UNL     1      19.355  55.369  28.118  0.00  0.00    -0.062 A 
ATOM      5  C   UNL     1      19.789  54.957  26.861  0.00  0.00    -0.061 A 
ATOM      6  C   UNL     1      21.020  54.315  26.722  0.00  0.00    -0.056 A 
ATOM      7  H   UNL     1      21.991  54.328  29.988  0.00  0.00    +0.062 HD
ATOM      8  H   UNL     1      19.813  55.462  30.220  0.00  0.00    +0.062 HD
ATOM      9  H   UNL     1      18.396  55.869  28.226  0.00  0.00    +0.062 HD
ATOM     10  H   UNL     1      19.168  55.134  25.985  0.00  0.00    +0.062 HD
ATOM     11  H   UNL     1      21.346  53.998  25.733  0.00  0.00    +0.062 HD
ENDROOT
BRANCH   1  12
ATOM     12  C   UNL     1      23.171  53.384  27.699  0.00  0.00    +0.077 C 
ATOM     13  H   UNL     1      23.150  52.427  28.233  0.00  0.00    +0.064 HD
BRANCH  12  14
ATOM     14  C   UNL     1      23.548  53.127  26.247  0.00  0.00    -0.035 C 
ATOM     15  H   UNL     1      23.676  54.065  25.692  0.00  0.00    +0.026 HD
ATOM     16  H   UNL     1      24.507  52.601  26.190  0.00  0.00    +0.026 HD
ATOM     17  H   UNL     1      22.789  52.526  25.736  0.00  0.00    +0.026 HD
ENDBRANCH  12  14
BRANCH  12  18
ATOM     18  O   UNL     1      24.196  54.166  28.310  0.00  0.00    -0.387 OA
ATOM     19  H   UNL     1      23.786  54.645  29.051  0.00  0.00    +0.210 HD
ENDBRANCH  12  18
ENDBRANCH   1  12
TORSDOF 3
ENDMDL
MODEL 7
REMARK minimizedAffinity -5.1136775
REMARK minimizedRMSD -1
REMARK  Name = 
REMARK  3 active torsions:
REMARK  status: ('A' for Active; 'I' for Inactive)
REMARK    1  A    between atoms: C_1  and  C_2
REMARK    2  A    between atoms: C_2  and  O_3
REMARK    3  A    between atoms: C_2  and  C_4
REMARK                            x       y       z     vdW  Elec       q    Type
REMARK                         _______ _______ _______ _____ _____    ______ ____
ROOT
ATOM      1  C   UNL     1      21.970  54.115  27.649  0.00  0.00    -0.019 A 
ATOM      2  C   UNL     1      21.610  54.306  28.990  0.00  0.00    -0.056 A 
ATOM      3  C   UNL     1      20.322  54.732  29.325  0.00  0.00    -0.061 A 
ATOM      4  C   UNL     1      19.382  54.970  28.325  0.00  0.00    -0.062 A 
ATOM      5  C   UNL     1      19.727  54.783  26.989  0.00  0.00    -0.061 A 
ATOM      6  C   UNL     1      21.012  54.357  26.652  0.00  0.00    -0.056 A 
ATOM      7  H   UNL     1      22.328  54.124  29.787  0.00  0.00    +0.062 HD
ATOM      8  H   UNL     1      20.053  54.877  30.369  0.00  0.00    +0.062 HD
ATOM      9  H   UNL     1      18.380  55.300  28.587  0.00  0.00    +0.062 HD
ATOM     10  H   UNL     1      18.994  54.967  26.206  0.00  0.00    +0.062 HD
ATOM     11  H   UNL     1      21.268  54.216  25.603  0.00  0.00    +0.062 HD
ENDROOT
BRANCH   1  12
ATOM     12  C   UNL     1      23.367  53.655  27.292  0.00  0.00    +0.077 C 
ATOM     13  H   UNL     1      23.737  54.227  26.433  0.00  0.00    +0.064 HD
BRANCH  12  14
ATOM     14  C   UNL     1      24.350  53.810  28.444  0.00  0.00    -0.035 C 
ATOM     15  H   UNL     1      24.074  53.178  29.297  0.00  0.00    +0.026 HD
ATOM     16  H   UNL     1      25.351  53.492  28.135  0.00  0.00    +0.026 HD
ATOM     17  H   UNL     1      24.404  54.848  28.788  0.00  0.00    +0.026 HD
ENDBRANCH  12  14
BRANCH  12  18
ATOM     18  O   UNL     1      23.344  52.287  26.888  0.00  0.00    -0.387 OA
ATOM     19  H   UNL     1      22.479  52.127  26.472  0.00  0.00    +0.210 HD
ENDBRANCH  12  18
ENDBRANCH   1  12
TORSDOF 3
ENDMDL
MODEL 8
REMARK minimizedAffinity -5.1117959
REMARK minimizedRMSD -1
REMARK  Name = 
REMARK  3 active torsions:
REMARK  status: ('A' for Active; 'I' for Inactive)
REMARK    1  A    between atoms: C_1  and  C_2
REMARK    2  A    between atoms: C_2  and  O_3
REMARK    3  A    between atoms: C_2  and  C_4
REMARK                            x       y       z     vdW  Elec       q    Type
REMARK                         _______ _______ _______ _____ _____    ______ ____
ROOT
ATOM      1  C   UNL     1      21.981  54.103  27.667  0.00  0.00    -0.019 A 
ATOM      2  C   UNL     1      21.038  54.347  26.659  0.00  0.00    -0.056 A 
ATOM      3  C   UNL     1      19.750  54.781  26.982  0.00  0.00    -0.061 A 
ATOM      4  C   UNL     1      19.392  54.975  28.314  0.00  0.00    -0.062 A 
ATOM      5  C   UNL     1      20.319  54.736  29.326  0.00  0.00    -0.061 A 
ATOM      6  C   UNL     1      21.606  54.303  29.005  0.00  0.00    -0.056 A 
ATOM      7  H   UNL     1      21.299  54.204  25.613  0.00  0.00    +0.062 HD
ATOM      8  H   UNL     1      19.027  54.969  26.192  0.00  0.00    +0.062 HD
ATOM      9  H   UNL     1      18.389  55.313  28.564  0.00  0.00    +0.062 HD
ATOM     10  H   UNL     1      20.041  54.888  30.366  0.00  0.00    +0.062 HD
ATOM     11  H   UNL     1      22.320  54.120  29.806  0.00  0.00    +0.062 HD
ENDROOT
BRANCH   1  12
ATOM     12  C   UNL     1      23.374  53.632  27.311  0.00  0.00    +0.077 C 
ATOM     13  H   UNL     1      23.738  54.178  26.433  0.00  0.00    +0.064 HD
BRANCH  12  14
ATOM     14  C   UNL     1      24.368  53.820  28.450  0.00  0.00    -0.035 C 
ATOM     15  H   UNL     1      24.098  53.214  29.324  0.00  0.00    +0.026 HD
ATOM     16  H   UNL     1      25.366  53.493  28.142  0.00  0.00    +0.026 HD
ATOM     17  H   UNL     1      24.425  54.868  28.763  0.00  0.00    +0.026 HD
ENDBRANCH  12  14
BRANCH  12  18
ATOM     18  O   UNL     1      23.348  52.252  26.948  0.00  0.00    -0.387 OA
ATOM     19  H   UNL     1      22.479  52.081  26.545  0.00  0.00    +0.210 HD
ENDBRANCH  12  18
ENDBRANCH   1  12
TORSDOF 3
ENDMDL
MODEL 9
REMARK minimizedAffinity -5.01351595
REMARK minimizedRMSD -1
REMARK  Name = 
REMARK  3 active torsions:
REMARK  status: ('A' for Active; 'I' for Inactive)
REMARK    1  A    between atoms: C_1  and  C_2
REMARK    2  A    between atoms: C_2  and  O_3
REMARK    3  A    between atoms: C_2  and  C_4
REMARK                            x       y       z     vdW  Elec       q    Type
REMARK                         _______ _______ _______ _____ _____    ______ ____
ROOT
ATOM      1  C   UNL     1      21.715  54.183  27.748  0.00  0.00    -0.019 A 
ATOM      2  C   UNL     1      22.772  54.014  28.653  0.00  0.00    -0.056 A 
ATOM      3  C   UNL     1      23.961  53.401  28.250  0.00  0.00    -0.061 A 
ATOM      4  C   UNL     1      24.106  52.951  26.940  0.00  0.00    -0.062 A 
ATOM      5  C   UNL     1      23.064  53.112  26.030  0.00  0.00    -0.061 A 
ATOM      6  C   UNL     1      21.876  53.725  26.430  0.00  0.00    -0.056 A 
ATOM      7  H   UNL     1      22.680  54.359  29.680  0.00  0.00    +0.062 HD
ATOM      8  H   UNL     1      24.775  53.276  28.960  0.00  0.00    +0.062 HD
ATOM      9  H   UNL     1      25.032  52.475  26.627  0.00  0.00    +0.062 HD
ATOM     10  H   UNL     1      23.176  52.763  25.006  0.00  0.00    +0.062 HD
ATOM     11  H   UNL     1      21.069  53.844  25.709  0.00  0.00    +0.062 HD
ENDROOT
BRANCH   1  12
ATOM     12  C   UNL     1      20.429  54.846  28.190  0.00  0.00    +0.077 C 
ATOM     13  H   UNL     1      20.483  55.924  28.001  0.00  0.00    +0.064 HD
BRANCH  12  14
ATOM     14  C   UNL     1      19.204  54.285  27.481  0.00  0.00    -0.035 C 
ATOM     15  H   UNL     1      19.051  53.225  27.719  0.00  0.00    +0.026 HD
ATOM     16  H   UNL     1      18.301  54.810  27.810  0.00  0.00    +0.026 HD
ATOM     17  H   UNL     1      19.289  54.385  26.394  0.00  0.00    +0.026 HD
ENDBRANCH  12  14
BRANCH  12  18
ATOM     18  O   UNL     1      20.256  54.691  29.598  0.00  0.00    -0.387 OA
ATOM     19  H   UNL     1      21.145  54.665  29.993  0.00  0.00    +0.210 HD
ENDBRANCH  12  18
ENDBRANCH   1  12
TORSDOF 3
ENDMDL
