MODEL 1
REMARK minimizedAffinity -5.97584295
REMARK minimizedRMSD -1
REMARK  Name = 
REMARK  3 active torsions:
REMARK  status: ('A' for Active; 'I' for Inactive)
REMARK    1  A    between atoms: C_1  and  C_2
REMARK    2  A    between atoms: C_2  and  O_3
REMARK    3  A    between atoms: C_2  and  C_4
REMARK                            x       y       z     vdW  Elec       q    Type
REMARK                         _______ _______ _______ _____ _____    ______ ____
ROOT
ATOM      1  C   UNL     1      20.701  55.987  27.933  0.00  0.00    -0.019 A 
ATOM      2  C   UNL     1      21.342  54.875  28.496  0.00  0.00    -0.056 A 
ATOM      3  C   UNL     1      20.600  53.785  28.956  0.00  0.00    -0.061 A 
ATOM      4  C   UNL     1      19.210  53.795  28.858  0.00  0.00    -0.062 A 
ATOM      5  C   UNL     1      18.560  54.894  28.300  0.00  0.00    -0.061 A 
ATOM      6  C   UNL     1      19.300  55.983  27.840  0.00  0.00    -0.056 A 
ATOM      7  H   UNL     1      22.426  54.847  28.580  0.00  0.00    +0.062 HD
ATOM      8  H   UNL     1      21.107  52.927  29.390  0.00  0.00    +0.062 HD
ATOM      9  H   UNL     1      18.633  52.946  29.215  0.00  0.00    +0.062 HD
ATOM     10  H   UNL     1      17.475  54.902  28.222  0.00  0.00    +0.062 HD
ATOM     11  H   UNL     1      18.779  56.835  27.407  0.00  0.00    +0.062 HD
ENDROOT
BRANCH   1  12
ATOM     12  C   UNL     1      21.510  57.166  27.438  0.00  0.00    +0.077 C 
ATOM     13  H   UNL     1      21.548  57.942  28.212  0.00  0.00    +0.064 HD
BRANCH  12  14
ATOM     14  C   UNL     1      22.935  56.784  27.058  0.00  0.00    -0.035 C 
ATOM     15  H   UNL     1      22.952  56.080  26.218  0.00  0.00    +0.026 HD
ATOM     16  H   UNL     1      23.492  57.669  26.732  0.00  0.00    +0.026 HD
ATOM     17  H   UNL     1      23.466  56.328  27.900  0.00  0.00    +0.026 HD
ENDBRANCH  12  14
BRANCH  12  18
ATOM     18  O   UNL     1      20.875  57.756  26.305  0.00  0.00    -0.387 OA
ATOM     19  H   UNL     1      19.917  57.623  26.414  0.00  0.00    +0.210 HD
ENDBRANCH  12  18
ENDBRANCH   1  12
TORSDOF 3
ENDMDL
MODEL 2
REMARK minimizedAffinity -5.96285152
REMARK minimizedRMSD -1
REMARK  Name = 
REMARK  3 active torsions:
REMARK  status: ('A' for Active; 'I' for Inactive)
REMARK    1  A    between atoms: C_1  and  C_2
REMARK    2  A    between atoms: C_2  and  O_3
REMARK    3  A    between atoms: C_2  and  C_4
REMARK                            x       y       z     vdW  Elec       q    Type
REMARK                         _______ _______ _______ _____ _____    ______ ____
ROOT
ATOM      1  C   UNL     1      20.715  55.943  27.947  0.00  0.00    -0.019 A 
ATOM      2  C   UNL     1      19.320  55.978  27.812  0.00  0.00    -0.056 A 
ATOM      3  C   UNL     1      18.537  54.914  28.265  0.00  0.00    -0.061 A 
ATOM      4  C   UNL     1      19.138  53.806  28.858  0.00  0.00    -0.062 A 
ATOM      5  C   UNL     1      20.523  53.758  28.998  0.00  0.00    -0.061 A 
ATOM      6  C   UNL     1      21.307  54.820  28.547  0.00  0.00    -0.056 A 
ATOM      7  H   UNL     1      18.831  56.835  27.354  0.00  0.00    +0.062 HD
ATOM      8  H   UNL     1      17.455  54.952  28.157  0.00  0.00    +0.062 HD
ATOM      9  H   UNL     1      18.527  52.979  29.211  0.00  0.00    +0.062 HD
ATOM     10  H   UNL     1      20.994  52.894  29.462  0.00  0.00    +0.062 HD
ATOM     11  H   UNL     1      22.388  54.770  28.663  0.00  0.00    +0.062 HD
ENDROOT
BRANCH   1  12
ATOM     12  C   UNL     1      21.559  57.098  27.453  0.00  0.00    +0.077 C 
ATOM     13  H   UNL     1      21.651  57.855  28.241  0.00  0.00    +0.064 HD
BRANCH  12  14
ATOM     14  C   UNL     1      22.955  56.665  27.026  0.00  0.00    -0.035 C 
ATOM     15  H   UNL     1      22.921  55.978  26.172  0.00  0.00    +0.026 HD
ATOM     16  H   UNL     1      23.540  57.532  26.702  0.00  0.00    +0.026 HD
ATOM     17  H   UNL     1      23.489  56.170  27.844  0.00  0.00    +0.026 HD
ENDBRANCH  12  14
BRANCH  12  18
ATOM     18  O   UNL     1      20.919  57.737  26.350  0.00  0.00    -0.387 OA
ATOM     19  H   UNL     1      19.960  57.641  26.483  0.00  0.00    +0.210 HD
ENDBRANCH  12  18
ENDBRANCH   1  12
TORSDOF 3
ENDMDL
MODEL 3
REMARK minimizedAffinity -5.90087557
REMARK minimizedRMSD -1
REMARK  Name = 
REMARK  3 active torsions:
REMARK  status: ('A' for Active; 'I' for Inactive)
REMARK    1  A    between atoms: C_1  and  C_2
REMARK    2  A    between atoms: C_2  and  O_3
REMARK    3  A    between atoms: C_2  and  C_4
REMARK                            x       y       z     vdW  Elec       q    Type
REMARK                         _______ _______ _______ _____ _____    ______ ____
ROOT
ATOM      1  C   UNL     1      19.965  55.879  27.925  0.00  0.00    -0.019 A 
ATOM      2  C   UNL     1      21.273  55.416  28.121  0.00  0.00    -0.056 A 
ATOM      3  C   UNL     1      22.360  56.117  27.594  0.00  0.00    -0.061 A 
ATOM      4  C   UNL     1      22.151  57.286  26.866  0.00  0.00    -0.062 A 
ATOM      5  C   UNL     1      20.856  57.757  26.664  0.00  0.00    -0.061 A 
ATOM      6  C   UNL     1      19.769  57.059  27.190  0.00  0.00    -0.056 A 
ATOM      7  H   UNL     1      21.458  54.506  28.688  0.00  0.00    +0.062 HD
ATOM      8  H   UNL     1      23.371  55.750  27.753  0.00  0.00    +0.062 HD
ATOM      9  H   UNL     1      22.998  57.831  26.457  0.00  0.00    +0.062 HD
ATOM     10  H   UNL     1      20.692  58.671  26.097  0.00  0.00    +0.062 HD
ATOM     11  H   UNL     1      18.762  57.439  27.024  0.00  0.00    +0.062 HD
ENDROOT
BRANCH   1  12
ATOM     12  C   UNL     1      18.790  55.115  28.497  0.00  0.00    +0.077 C 
ATOM     13  H   UNL     1      17.991  55.049  27.749  0.00  0.00    +0.064 HD
BRANCH  12  14
ATOM     14  C   UNL     1      19.164  53.707  28.939  0.00  0.00    -0.035 C 
ATOM     15  H   UNL     1      19.894  53.722  29.758  0.00  0.00    +0.026 HD
ATOM     16  H   UNL     1      18.282  53.181  29.321  0.00  0.00    +0.026 HD
ATOM     17  H   UNL     1      19.586  53.125  28.113  0.00  0.00    +0.026 HD
ENDBRANCH  12  14
BRANCH  12  18
ATOM     18  O   UNL     1      18.244  55.818  29.612  0.00  0.00    -0.387 OA
ATOM     19  H   UNL     1      18.388  56.766  29.449  0.00  0.00    +0.210 HD
ENDBRANCH  12  18
ENDBRANCH   1  12
TORSDOF 3
ENDMDL
MODEL 4
REMARK minimizedAffinity -5.84620762
REMARK minimizedRMSD -1
REMARK  Name = 
REMARK  3 active torsions:
REMARK  status: ('A' for Active; 'I' for Inactive)
REMARK    1  A    between atoms: C_1  and  C_2
REMARK    2  A    between atoms: C_2  and  O_3
REMARK    3  A    between atoms: C_2  and  C_4
REMARK                            x       y       z     vdW  Elec       q    Type
REMARK                         _______ _______ _______ _____ _____    ______ ____
ROOT
ATOM      1  C   UNL     1      20.203  55.676  28.171  0.00  0.00    -0.019 A 
ATOM      2  C   UNL     1      19.714  56.774  27.450  0.00  0.00    -0.056 A 
ATOM      3  C   UNL     1      20.584  57.591  26.724  0.00  0.00    -0.061 A 
ATOM      4  C   UNL     1      21.950  57.320  26.710  0.00  0.00    -0.062 A 
ATOM      5  C   UNL     1      22.449  56.232  27.422  0.00  0.00    -0.061 A 
ATOM      6  C   UNL     1      21.582  55.414  28.148  0.00  0.00    -0.056 A 
ATOM      7  H   UNL     1      18.650  57.003  27.446  0.00  0.00    +0.062 HD
ATOM      8  H   UNL     1      20.193  58.440  26.167  0.00  0.00    +0.062 HD
ATOM      9  H   UNL     1      22.626  57.956  26.144  0.00  0.00    +0.062 HD
ATOM     10  H   UNL     1      23.516  56.018  27.412  0.00  0.00    +0.062 HD
ATOM     11  H   UNL     1      21.986  54.567  28.700  0.00  0.00    +0.062 HD
ENDROOT
BRANCH   1  12
ATOM     12  C   UNL     1      19.256  54.796  28.957  0.00  0.00    +0.077 C 
ATOM     13  H   UNL     1      19.082  55.230  29.948  0.00  0.00    +0.064 HD
BRANCH  12  14
ATOM     14  C   UNL     1      17.915  54.607  28.262  0.00  0.00    -0.035 C 
ATOM     15  H   UNL     1      18.027  54.085  27.304  0.00  0.00    +0.026 HD
ATOM     16  H   UNL     1      17.252  53.987  28.876  0.00  0.00    +0.026 HD
ATOM     17  H   UNL     1      17.421  55.566  28.076  0.00  0.00    +0.026 HD
ENDBRANCH  12  14
BRANCH  12  18
ATOM     18  O   UNL     1      19.846  53.515  29.175  0.00  0.00    -0.387 OA
ATOM     19  H   UNL     1      20.808  53.649  29.230  0.00  0.00    +0.210 HD
ENDBRANCH  12  18
ENDBRANCH   1  12
TORSDOF 3
ENDMDL
MODEL 5
REMARK minimizedAffinity -5.65824175
REMARK minimizedRMSD -1
REMARK  Name = 
REMARK  3 active torsions:
REMARK  status: ('A' for Active; 'I' for Inactive)
REMARK    1  A    between atoms: C_1  and  C_2
REMARK    2  A    between atoms: C_2  and  O_3
REMARK    3  A    between atoms: C_2  and  C_4
REMARK                            x       y       z     vdW  Elec       q    Type
REMARK                         _______ _______ _______ _____ _____    ______ ____
ROOT
ATOM      1  C   UNL     1      19.341  54.435  28.743  0.00  0.00    -0.019 A 
ATOM      2  C   UNL     1      19.265  55.704  28.153  0.00  0.00    -0.056 A 
ATOM      3  C   UNL     1      20.423  56.357  27.723  0.00  0.00    -0.061 A 
ATOM      4  C   UNL     1      21.666  55.749  27.877  0.00  0.00    -0.062 A 
ATOM      5  C   UNL     1      21.756  54.488  28.462  0.00  0.00    -0.061 A 
ATOM      6  C   UNL     1      20.601  53.834  28.892  0.00  0.00    -0.056 A 
ATOM      7  H   UNL     1      18.304  56.195  28.021  0.00  0.00    +0.062 HD
ATOM      8  H   UNL     1      20.352  57.341  27.265  0.00  0.00    +0.062 HD
ATOM      9  H   UNL     1      22.566  56.258  27.541  0.00  0.00    +0.062 HD
ATOM     10  H   UNL     1      22.727  54.012  28.583  0.00  0.00    +0.062 HD
ATOM     11  H   UNL     1      20.686  52.849  29.347  0.00  0.00    +0.062 HD
ENDROOT
BRANCH   1  12
ATOM     12  C   UNL     1      18.084  53.733  29.209  0.00  0.00    +0.077 C 
ATOM     13  H   UNL     1      18.239  52.647  29.197  0.00  0.00    +0.064 HD
BRANCH  12  14
ATOM     14  C   UNL     1      17.661  54.152  30.610  0.00  0.00    -0.035 C 
ATOM     15  H   UNL     1      17.399  55.216  30.650  0.00  0.00    +0.026 HD
ATOM     16  H   UNL     1      16.765  53.602  30.918  0.00  0.00    +0.026 HD
ATOM     17  H   UNL     1      18.454  53.964  31.341  0.00  0.00    +0.026 HD
ENDBRANCH  12  14
BRANCH  12  18
ATOM     18  O   UNL     1      17.011  53.997  28.306  0.00  0.00    -0.387 OA
ATOM     19  H   UNL     1      17.404  54.113  27.423  0.00  0.00    +0.210 HD
ENDBRANCH  12  18
ENDBRANCH   1  12
TORSDOF 3
ENDMDL
MODEL 6
REMARK minimizedAffinity -5.47796869
REMARK minimizedRMSD -1
REMARK  Name = 
REMARK  3 active torsions:
REMARK  status: ('A' for Active; 'I' for Inactive)
REMARK    1  A    between atoms: C_1  and  C_2
REMARK    2  A    between atoms: C_2  and  O_3
REMARK    3  A    between atoms: C_2  and  C_4
REMARK                            x       y       z     vdW  Elec       q    Type
REMARK                         _______ _______ _______ _____ _____    ______ ____
ROOT
ATOM      1  C   UNL     1      21.490  55.921  27.689  0.00  0.00    -0.019 A 
ATOM      2  C   UNL     1      22.468  54.959  27.974  0.00  0.00    -0.056 A 
ATOM      3  C   UNL     1      22.128  53.774  28.632  0.00  0.00    -0.061 A 
ATOM      4  C   UNL     1      20.808  53.540  29.011  0.00  0.00    -0.062 A 
ATOM      5  C   UNL     1      19.826  54.488  28.734  0.00  0.00    -0.061 A 
ATOM      6  C   UNL     1      20.163  55.671  28.077  0.00  0.00    -0.056 A 
ATOM      7  H   UNL     1      23.504  55.121  27.685  0.00  0.00    +0.062 HD
ATOM      8  H   UNL     1      22.894  53.034  28.847  0.00  0.00    +0.062 HD
ATOM      9  H   UNL     1      20.544  52.617  29.523  0.00  0.00    +0.062 HD
ATOM     10  H   UNL     1      18.795  54.305  29.029  0.00  0.00    +0.062 HD
ATOM     11  H   UNL     1      19.386  56.403  27.866  0.00  0.00    +0.062 HD
ENDROOT
BRANCH   1  12
ATOM     12  C   UNL     1      21.864  57.203  26.977  0.00  0.00    +0.077 C 
ATOM     13  H   UNL     1      22.539  56.981  26.143  0.00  0.00    +0.064 HD
BRANCH  12  14
ATOM     14  C   UNL     1      20.652  57.953  26.439  0.00  0.00    -0.035 C 
ATOM     15  H   UNL     1      19.991  58.283  27.250  0.00  0.00    +0.026 HD
ATOM     16  H   UNL     1      20.969  58.857  25.910  0.00  0.00    +0.026 HD
ATOM     17  H   UNL     1      20.069  57.331  25.751  0.00  0.00    +0.026 HD
ENDBRANCH  12  14
BRANCH  12  18
ATOM     18  O   UNL     1      22.582  58.063  27.861  0.00  0.00    -0.387 OA
ATOM     19  H   UNL     1      23.073  57.492  28.477  0.00  0.00    +0.210 HD
ENDBRANCH  12  18
ENDBRANCH   1  12
TORSDOF 3
ENDMDL
MODEL 7
REMARK minimizedAffinity -5.46888971
REMARK minimizedRMSD -1
REMARK  Name = 
REMARK  3 active torsions:
REMARK  status: ('A' for Active; 'I' for Inactive)
REMARK    1  A    between atoms: C_1  and  C_2
REMARK    2  A    between atoms: C_2  and  O_3
REMARK    3  A    between atoms: C_2  and  C_4
REMARK                            x       y       z     vdW  Elec       q    Type
REMARK                         _______ _______ _______ _____ _____    ______ ____
ROOT
ATOM      1  C   UNL     1      22.342  55.890  27.406  0.00  0.00    -0.019 A 
ATOM      2  C   UNL     1      21.243  55.452  28.157  0.00  0.00    -0.056 A 
ATOM      3  C   UNL     1      20.120  56.268  28.314  0.00  0.00    -0.061 A 
ATOM      4  C   UNL     1      20.084  57.528  27.722  0.00  0.00    -0.062 A 
ATOM      5  C   UNL     1      21.169  57.976  26.973  0.00  0.00    -0.061 A 
ATOM      6  C   UNL     1      22.291  57.162  26.815  0.00  0.00    -0.056 A 
ATOM      7  H   UNL     1      21.250  54.470  28.626  0.00  0.00    +0.062 HD
ATOM      8  H   UNL     1      19.272  55.918  28.897  0.00  0.00    +0.062 HD
ATOM      9  H   UNL     1      19.209  58.162  27.844  0.00  0.00    +0.062 HD
ATOM     10  H   UNL     1      21.142  58.960  26.510  0.00  0.00    +0.062 HD
ATOM     11  H   UNL     1      23.133  57.525  26.227  0.00  0.00    +0.062 HD
ENDROOT
BRANCH   1  12
ATOM     12  C   UNL     1      23.556  55.002  27.241  0.00  0.00    +0.077 C 
ATOM     13  H   UNL     1      23.490  54.455  26.293  0.00  0.00    +0.064 HD
BRANCH  12  14
ATOM     14  C   UNL     1      24.863  55.784  27.265  0.00  0.00    -0.035 C 
ATOM     15  H   UNL     1      25.023  56.272  28.233  0.00  0.00    +0.026 HD
ATOM     16  H   UNL     1      25.713  55.109  27.115  0.00  0.00    +0.026 HD
ATOM     17  H   UNL     1      24.886  56.551  26.484  0.00  0.00    +0.026 HD
ENDBRANCH  12  14
BRANCH  12  18
ATOM     18  O   UNL     1      23.590  54.019  28.274  0.00  0.00    -0.387 OA
ATOM     19  H   UNL     1      22.666  53.823  28.510  0.00  0.00    +0.210 HD
ENDBRANCH  12  18
ENDBRANCH   1  12
TORSDOF 3
ENDMDL
MODEL 8
REMARK minimizedAffinity -5.46228552
REMARK minimizedRMSD -1
REMARK  Name = 
REMARK  3 active torsions:
REMARK  status: ('A' for Active; 'I' for Inactive)
REMARK    1  A    between atoms: C_1  and  C_2
REMARK    2  A    between atoms: C_2  and  O_3
REMARK    3  A    between atoms: C_2  and  C_4
REMARK                            x       y       z     vdW  Elec       q    Type
REMARK                         _______ _______ _______ _____ _____    ______ ____
ROOT
ATOM      1  C   UNL     1      22.298  55.908  27.404  0.00  0.00    -0.019 A 
ATOM      2  C   UNL     1      22.265  57.180  26.817  0.00  0.00    -0.056 A 
ATOM      3  C   UNL     1      21.141  57.998  26.959  0.00  0.00    -0.061 A 
ATOM      4  C   UNL     1      20.041  57.554  27.689  0.00  0.00    -0.062 A 
ATOM      5  C   UNL     1      20.061  56.292  28.278  0.00  0.00    -0.061 A 
ATOM      6  C   UNL     1      21.182  55.474  28.138  0.00  0.00    -0.056 A 
ATOM      7  H   UNL     1      23.114  57.546  26.244  0.00  0.00    +0.062 HD
ATOM      8  H   UNL     1      21.126  58.984  26.500  0.00  0.00    +0.062 HD
ATOM      9  H   UNL     1      19.168  58.192  27.800  0.00  0.00    +0.062 HD
ATOM     10  H   UNL     1      19.203  55.944  28.850  0.00  0.00    +0.062 HD
ATOM     11  H   UNL     1      21.184  54.490  28.603  0.00  0.00    +0.062 HD
ENDROOT
BRANCH   1  12
ATOM     12  C   UNL     1      23.517  55.025  27.246  0.00  0.00    +0.077 C 
ATOM     13  H   UNL     1      23.465  54.488  26.291  0.00  0.00    +0.064 HD
BRANCH  12  14
ATOM     14  C   UNL     1      24.821  55.808  27.296  0.00  0.00    -0.035 C 
ATOM     15  H   UNL     1      24.966  56.286  28.273  0.00  0.00    +0.026 HD
ATOM     16  H   UNL     1      25.674  55.137  27.151  0.00  0.00    +0.026 HD
ATOM     17  H   UNL     1      24.853  56.585  26.525  0.00  0.00    +0.026 HD
ENDBRANCH  12  14
BRANCH  12  18
ATOM     18  O   UNL     1      23.538  54.030  28.268  0.00  0.00    -0.387 OA
ATOM     19  H   UNL     1      22.612  53.829  28.489  0.00  0.00    +0.210 HD
ENDBRANCH  12  18
ENDBRANCH   1  12
TORSDOF 3
ENDMDL
MODEL 9
REMARK minimizedAffinity -5.44745922
REMARK minimizedRMSD -1
REMARK  Name = 
REMARK  3 active torsions:
REMARK  status: ('A' for Active; 'I' for Inactive)
REMARK    1  A    between atoms: C_1  and  C_2
REMARK    2  A    between atoms: C_2  and  O_3
REMARK    3  A    between atoms: C_2  and  C_4
REMARK                            x       y       z     vdW  Elec       q    Type
REMARK                         _______ _______ _______ _____ _____    ______ ____
ROOT
ATOM      1  C   UNL     1      20.364  56.016  28.100  0.00  0.00    -0.019 A 
ATOM      2  C   UNL     1      19.198  55.365  28.528  0.00  0.00    -0.056 A 
ATOM      3  C   UNL     1      19.254  54.057  29.016  0.00  0.00    -0.061 A 
ATOM      4  C   UNL     1      20.473  53.387  29.083  0.00  0.00    -0.062 A 
ATOM      5  C   UNL     1      21.639  54.022  28.661  0.00  0.00    -0.061 A 
ATOM      6  C   UNL     1      21.586  55.328  28.174  0.00  0.00    -0.056 A 
ATOM      7  H   UNL     1      18.236  55.871  28.486  0.00  0.00    +0.062 HD
ATOM      8  H   UNL     1      18.344  53.562  29.346  0.00  0.00    +0.062 HD
ATOM      9  H   UNL     1      20.515  52.370  29.464  0.00  0.00    +0.062 HD
ATOM     10  H   UNL     1      22.592  53.500  28.713  0.00  0.00    +0.062 HD
ATOM     11  H   UNL     1      22.505  55.812  27.848  0.00  0.00    +0.062 HD
ENDROOT
BRANCH   1  12
ATOM     12  C   UNL     1      20.298  57.432  27.571  0.00  0.00    +0.077 C 
ATOM     13  H   UNL     1      19.875  58.094  28.335  0.00  0.00    +0.064 HD
BRANCH  12  14
ATOM     14  C   UNL     1      21.661  57.969  27.158  0.00  0.00    -0.035 C 
ATOM     15  H   UNL     1      22.085  57.395  26.325  0.00  0.00    +0.026 HD
ATOM     16  H   UNL     1      21.572  59.003  26.807  0.00  0.00    +0.026 HD
ATOM     17  H   UNL     1      22.372  57.943  27.991  0.00  0.00    +0.026 HD
ENDBRANCH  12  14
BRANCH  12  18
ATOM     18  O   UNL     1      19.419  57.495  26.449  0.00  0.00    -0.387 OA
ATOM     19  H   UNL     1      18.734  56.818  26.585  0.00  0.00    +0.210 HD
ENDBRANCH  12  18
ENDBRANCH   1  12
TORSDOF 3
ENDMDL
