REMARK  Name = 
REMARK  3 active torsions:
REMARK  status: ('A' for Active; 'I' for Inactive)
REMARK    1  A    between atoms: C_1  and  C_2
REMARK    2  A    between atoms: C_2  and  O_3
REMARK    3  A    between atoms: C_2  and  C_4
REMARK                            x       y       z     vdW  Elec       q    Type
REMARK                         _______ _______ _______ _____ _____    ______ ____
ROOT
ATOM      1  C   UNL     1      -0.124   0.228  -0.181  0.00  0.00    -0.019 A 
ATOM      2  C   UNL     1       0.585   1.106  -1.012  0.00  0.00    -0.056 A 
ATOM      3  C   UNL     1       1.982   1.099  -1.027  0.00  0.00    -0.061 A 
ATOM      4  C   UNL     1       2.684   0.213  -0.211  0.00  0.00    -0.062 A 
ATOM      5  C   UNL     1       1.992  -0.666   0.619  0.00  0.00    -0.061 A 
ATOM      6  C   UNL     1       0.597  -0.659   0.634  0.00  0.00    -0.056 A 
ATOM      7  H   UNL     1       0.056   1.804  -1.658  0.00  0.00    +0.062 HD
ATOM      8  H   UNL     1       2.522   1.783  -1.675  0.00  0.00    +0.062 HD
ATOM      9  H   UNL     1       3.771   0.208  -0.224  0.00  0.00    +0.062 HD
ATOM     10  H   UNL     1       2.539  -1.358   1.255  0.00  0.00    +0.062 HD
ATOM     11  H   UNL     1       0.069  -1.351   1.288  0.00  0.00    +0.062 HD
ENDROOT
BRANCH   1  12
ATOM     12  C   UNL     1      -1.637   0.242  -0.169  0.00  0.00    +0.077 C 
ATOM     13  H   UNL     1      -2.005   1.099  -0.744  0.00  0.00    +0.064 HD
BRANCH  12  14
ATOM     14  C   UNL     1      -2.241  -1.031  -0.747  0.00  0.00    -0.035 C 
ATOM     15  H   UNL     1      -1.981  -1.909  -0.146  0.00  0.00    +0.026 HD
ATOM     16  H   UNL     1      -3.335  -0.967  -0.744  0.00  0.00    +0.026 HD
ATOM     17  H   UNL     1      -1.905  -1.204  -1.774  0.00  0.00    +0.026 HD
ENDBRANCH  12  14
BRANCH  12  18
ATOM     18  O   UNL     1      -2.115   0.413   1.165  0.00  0.00    -0.387 OA
ATOM     19  H   UNL     1      -1.454   0.949   1.637  0.00  0.00    +0.210 HD
ENDBRANCH  12  18
ENDBRANCH   1  12
TORSDOF 3
