REMARK  Name = Rprod_cov
REMARK  5 active torsions:
REMARK  status: ('A' for Active; 'I' for Inactive)
REMARK    1  A    between atoms: C_6  and  C_7
REMARK    2  A    between atoms: C_7  and  C_8
REMARK    3  A    between atoms: C_7  and  O_14
REMARK    4  A    between atoms: O_14  and  S_24
REMARK    5  A    between atoms: C_16  and  S_24
REMARK                            x       y       z     vdW  Elec       q    Type
REMARK                         _______ _______ _______ _____ _____    ______ ____
ROOT
ATOM      1  C   UNK A   1       0.731  -2.235  -0.859  0.00  0.00    +0.044 C 
ATOM      2  C   UNK A   1       0.903  -0.965  -0.027  0.00  0.00    +0.163 C 
ENDROOT
BRANCH   2   3
ATOM      3  C   UNK A   1      -0.402  -0.202   0.094  0.00  0.00    -0.018 C 
ATOM      4  C   UNK A   1      -1.024  -0.071   1.344  0.00  0.00    +0.006 C 
ATOM      5  C   UNK A   1      -2.226   0.629   1.469  0.00  0.00    +0.000 C 
ATOM      6  C   UNK A   1      -2.818   1.207   0.348  0.00  0.00    +0.000 C 
ATOM      7  C   UNK A   1      -2.208   1.089  -0.898  0.00  0.00    +0.000 C 
ATOM      8  C   UNK A   1      -1.007   0.390  -1.026  0.00  0.00    +0.006 C 
ENDBRANCH   2   3
BRANCH   2   9
ATOM      9  O   UNK A   1       1.881  -0.144  -0.686  0.00  0.00    -0.282 OA
BRANCH   9  12
ATOM     10  O   UNK A   1       2.524   0.716   1.342  0.00  0.00    -0.228 OA
ATOM     11  C   UNK A   1       3.602   1.591  -0.609  0.00  0.00    +0.154 C 
ATOM     12  S   UNK A   1       2.635   0.728   0.227  0.00  0.00    +0.154 S 
ENDBRANCH   9  12
ENDBRANCH   2   9
TORSDOF 3
