MODEL 1
REMARK minimizedAffinity -1139.19897
REMARK minimizedRMSD -1
REMARK  Name = Rprod_cov
REMARK  5 active torsions:
REMARK  status: ('A' for Active; 'I' for Inactive)
REMARK    1  A    between atoms: C_6  and  C_7
REMARK    2  A    between atoms: C_7  and  C_8
REMARK    3  A    between atoms: C_7  and  O_14
REMARK    4  A    between atoms: O_14  and  S_24
REMARK    5  A    between atoms: C_16  and  S_24
REMARK                            x       y       z     vdW  Elec       q    Type
REMARK                         _______ _______ _______ _____ _____    ______ ____
ROOT
ATOM      1  C   UNK A   1      18.447  58.014  29.265  0.00  0.00    +0.044 C 
ATOM      2  C   UNK A   1      19.802  58.424  28.689  0.00  0.00    +0.163 C 
ENDROOT
BRANCH   2   3
ATOM      3  C   UNK A   1      20.642  57.212  28.336  0.00  0.00    -0.018 C 
ATOM      4  C   UNK A   1      20.040  55.950  28.222  0.00  0.00    +0.006 C 
ATOM      5  C   UNK A   1      20.803  54.826  27.897  0.00  0.00    +0.000 C 
ATOM      6  C   UNK A   1      22.173  54.950  27.681  0.00  0.00    +0.000 C 
ATOM      7  C   UNK A   1      22.783  56.198  27.786  0.00  0.00    +0.000 C 
ATOM      8  C   UNK A   1      22.024  57.323  28.110  0.00  0.00    +0.006 C 
ENDBRANCH   2   3
BRANCH   2   9
ATOM      9  O   UNK A   1      20.479  59.204  29.688  0.00  0.00    -0.282 OA
BRANCH   9  12
ATOM     10  O   UNK A   1      20.948  61.251  28.762  0.00  0.00    -0.228 OA
ATOM     11  C   UNK A   1      19.231  61.171  30.429  0.00  0.00    +0.154 C 
ATOM     12  S   UNK A   1      20.346  60.656  29.497  0.00  0.00    +0.154 S 
ENDBRANCH   9  12
ENDBRANCH   2   9
TORSDOF 3
ENDMDL
MODEL 2
REMARK minimizedAffinity -1138.59216
REMARK minimizedRMSD -1
REMARK  Name = Rprod_cov
REMARK  5 active torsions:
REMARK  status: ('A' for Active; 'I' for Inactive)
REMARK    1  A    between atoms: C_6  and  C_7
REMARK    2  A    between atoms: C_7  and  C_8
REMARK    3  A    between atoms: C_7  and  O_14
REMARK    4  A    between atoms: O_14  and  S_24
REMARK    5  A    between atoms: C_16  and  S_24
REMARK                            x       y       z     vdW  Elec       q    Type
REMARK                         _______ _______ _______ _____ _____    ______ ____
ROOT
ATOM      1  C   UNK A   1      19.032  58.033  29.134  0.00  0.00    +0.044 C 
ATOM      2  C   UNK A   1      20.327  58.562  28.520  0.00  0.00    +0.163 C 
ENDROOT
BRANCH   2   3
ATOM      3  C   UNK A   1      21.276  57.432  28.172  0.00  0.00    -0.018 C 
ATOM      4  C   UNK A   1      22.413  57.687  27.392  0.00  0.00    +0.006 C 
ATOM      5  C   UNK A   1      23.296  56.655  27.064  0.00  0.00    +0.000 C 
ATOM      6  C   UNK A   1      23.053  55.359  27.514  0.00  0.00    +0.000 C 
ATOM      7  C   UNK A   1      21.931  55.093  28.294  0.00  0.00    +0.000 C 
ATOM      8  C   UNK A   1      21.047  56.122  28.623  0.00  0.00    +0.006 C 
ENDBRANCH   2   3
BRANCH   2   9
ATOM      9  O   UNK A   1      20.943  59.428  29.487  0.00  0.00    -0.282 OA
BRANCH   9  12
ATOM     10  O   UNK A   1      20.156  61.452  28.747  0.00  0.00    -0.228 OA
ATOM     11  C   UNK A   1      19.823  60.928  31.060  0.00  0.00    +0.154 C 
ATOM     12  S   UNK A   1      20.296  60.743  29.604  0.00  0.00    +0.154 S 
ENDBRANCH   9  12
ENDBRANCH   2   9
TORSDOF 3
ENDMDL
MODEL 3
REMARK minimizedAffinity -1137.74072
REMARK minimizedRMSD -1
REMARK  Name = Rprod_cov
REMARK  5 active torsions:
REMARK  status: ('A' for Active; 'I' for Inactive)
REMARK    1  A    between atoms: C_6  and  C_7
REMARK    2  A    between atoms: C_7  and  C_8
REMARK    3  A    between atoms: C_7  and  O_14
REMARK    4  A    between atoms: O_14  and  S_24
REMARK    5  A    between atoms: C_16  and  S_24
REMARK                            x       y       z     vdW  Elec       q    Type
REMARK                         _______ _______ _______ _____ _____    ______ ____
ROOT
ATOM      1  C   UNK A   1      22.275  58.702  27.521  0.00  0.00    +0.044 C 
ATOM      2  C   UNK A   1      21.295  58.719  28.693  0.00  0.00    +0.163 C 
ENDROOT
BRANCH   2   3
ATOM      3  C   UNK A   1      20.522  57.417  28.787  0.00  0.00    -0.018 C 
ATOM      4  C   UNK A   1      19.234  57.405  29.342  0.00  0.00    +0.006 C 
ATOM      5  C   UNK A   1      18.511  56.214  29.434  0.00  0.00    +0.000 C 
ATOM      6  C   UNK A   1      19.066  55.023  28.971  0.00  0.00    +0.000 C 
ATOM      7  C   UNK A   1      20.342  55.022  28.412  0.00  0.00    +0.000 C 
ATOM      8  C   UNK A   1      21.066  56.211  28.319  0.00  0.00    +0.006 C 
ENDBRANCH   2   3
BRANCH   2   9
ATOM      9  O   UNK A   1      20.381  59.807  28.479  0.00  0.00    -0.282 OA
BRANCH   9  12
ATOM     10  O   UNK A   1      19.987  61.810  29.526  0.00  0.00    -0.228 OA
ATOM     11  C   UNK A   1      20.621  59.960  30.907  0.00  0.00    +0.154 C 
ATOM     12  S   UNK A   1      20.287  60.735  29.616  0.00  0.00    +0.154 S 
ENDBRANCH   9  12
ENDBRANCH   2   9
TORSDOF 3
ENDMDL
