REMARK  Name = Sprod_cov
REMARK  5 active torsions:
REMARK  status: ('A' for Active; 'I' for Inactive)
REMARK    1  A    between atoms: C_1  and  C_2
REMARK    2  A    between atoms: C_2  and  C_3
REMARK    3  A    between atoms: C_2  and  O_9
REMARK    4  A    between atoms: O_9  and  S_24
REMARK    5  A    between atoms: C_11  and  S_24
REMARK                            x       y       z     vdW  Elec       q    Type
REMARK                         _______ _______ _______ _____ _____    ______ ____
ROOT
ATOM      1  C   UNK A   1       0.901  -1.672  -1.046  0.00  0.00    +0.044 C 
ATOM      2  C   UNK A   1       0.928  -0.315  -0.346  0.00  0.00    +0.163 C 
ENDROOT
BRANCH   2   3
ATOM      3  C   UNK A   1      -0.464   0.290  -0.302  0.00  0.00    -0.018 C 
ATOM      4  C   UNK A   1      -0.819   1.301  -1.210  0.00  0.00    +0.006 C 
ATOM      5  C   UNK A   1      -2.100   1.855  -1.193  0.00  0.00    +0.000 C 
ATOM      6  C   UNK A   1      -3.044   1.403  -0.273  0.00  0.00    +0.000 C 
ATOM      7  C   UNK A   1      -2.709   0.397   0.630  0.00  0.00    +0.000 C 
ATOM      8  C   UNK A   1      -1.428  -0.158   0.615  0.00  0.00    +0.006 C 
ENDBRANCH   2   3
BRANCH   2   9
ATOM      9  O   UNK A   1       1.395  -0.473   1.004  0.00  0.00    -0.282 OA
BRANCH   9  12
ATOM     10  O   UNK A   1       3.561  -0.382   0.264  0.00  0.00    -0.228 OA
ATOM     11  C   UNK A   1       3.223  -0.649   2.621  0.00  0.00    +0.154 C 
ATOM     12  S   UNK A   1       2.860  -0.478   1.134  0.00  0.00    +0.154 S 
ENDBRANCH   9  12
ENDBRANCH   2   9
TORSDOF 3
