MODEL 1
REMARK minimizedAffinity -1139.91492
REMARK minimizedRMSD -1
REMARK  Name = Sprod_cov
REMARK  5 active torsions:
REMARK  status: ('A' for Active; 'I' for Inactive)
REMARK    1  A    between atoms: C_1  and  C_2
REMARK    2  A    between atoms: C_2  and  C_3
REMARK    3  A    between atoms: C_2  and  O_9
REMARK    4  A    between atoms: O_9  and  S_24
REMARK    5  A    between atoms: C_11  and  S_24
REMARK                            x       y       z     vdW  Elec       q    Type
REMARK                         _______ _______ _______ _____ _____    ______ ____
ROOT
ATOM      1  C   UNK A   1      18.781  58.056  28.423  0.00  0.00    +0.044 C 
ATOM      2  C   UNK A   1      20.188  58.351  28.939  0.00  0.00    +0.163 C 
ENDROOT
BRANCH   2   3
ATOM      3  C   UNK A   1      21.198  57.419  28.294  0.00  0.00    -0.018 C 
ATOM      4  C   UNK A   1      20.887  56.060  28.118  0.00  0.00    +0.006 C 
ATOM      5  C   UNK A   1      21.799  55.195  27.512  0.00  0.00    +0.000 C 
ATOM      6  C   UNK A   1      23.030  55.675  27.070  0.00  0.00    +0.000 C 
ATOM      7  C   UNK A   1      23.351  57.021  27.232  0.00  0.00    +0.000 C 
ATOM      8  C   UNK A   1      22.440  57.888  27.839  0.00  0.00    +0.006 C 
ENDBRANCH   2   3
BRANCH   2   9
ATOM      9  O   UNK A   1      20.551  59.704  28.616  0.00  0.00    -0.282 OA
BRANCH   9  12
ATOM     10  O   UNK A   1      19.978  61.706  29.570  0.00  0.00    -0.228 OA
ATOM     11  C   UNK A   1      20.733  59.973  31.041  0.00  0.00    +0.154 C 
ATOM     12  S   UNK A   1      20.346  60.657  29.717  0.00  0.00    +0.154 S 
ENDBRANCH   9  12
ENDBRANCH   2   9
TORSDOF 3
ENDMDL
MODEL 2
REMARK minimizedAffinity -1138.5918
REMARK minimizedRMSD -1
REMARK  Name = Sprod_cov
REMARK  5 active torsions:
REMARK  status: ('A' for Active; 'I' for Inactive)
REMARK    1  A    between atoms: C_1  and  C_2
REMARK    2  A    between atoms: C_2  and  C_3
REMARK    3  A    between atoms: C_2  and  O_9
REMARK    4  A    between atoms: O_9  and  S_24
REMARK    5  A    between atoms: C_11  and  S_24
REMARK                            x       y       z     vdW  Elec       q    Type
REMARK                         _______ _______ _______ _____ _____    ______ ____
ROOT
ATOM      1  C   UNK A   1      21.805  58.201  27.947  0.00  0.00    +0.044 C 
ATOM      2  C   UNK A   1      20.427  58.528  28.518  0.00  0.00    +0.163 C 
ENDROOT
BRANCH   2   3
ATOM      3  C   UNK A   1      19.660  57.254  28.826  0.00  0.00    -0.018 C 
ATOM      4  C   UNK A   1      20.055  56.039  28.242  0.00  0.00    +0.006 C 
ATOM      5  C   UNK A   1      19.371  54.856  28.528  0.00  0.00    +0.000 C 
ATOM      6  C   UNK A   1      18.288  54.871  29.404  0.00  0.00    +0.000 C 
ATOM      7  C   UNK A   1      17.888  56.067  29.996  0.00  0.00    +0.000 C 
ATOM      8  C   UNK A   1      18.571  57.251  29.711  0.00  0.00    +0.006 C 
ENDBRANCH   2   3
BRANCH   2   9
ATOM      9  O   UNK A   1      20.570  59.275  29.738  0.00  0.00    -0.282 OA
BRANCH   9  12
ATOM     10  O   UNK A   1      20.746  61.354  28.793  0.00  0.00    -0.228 OA
ATOM     11  C   UNK A   1      19.334  61.145  30.717  0.00  0.00    +0.154 C 
ATOM     12  S   UNK A   1      20.297  60.713  29.595  0.00  0.00    +0.154 S 
ENDBRANCH   9  12
ENDBRANCH   2   9
TORSDOF 3
ENDMDL
MODEL 3
REMARK minimizedAffinity -1138.27148
REMARK minimizedRMSD -1
REMARK  Name = Sprod_cov
REMARK  5 active torsions:
REMARK  status: ('A' for Active; 'I' for Inactive)
REMARK    1  A    between atoms: C_1  and  C_2
REMARK    2  A    between atoms: C_2  and  C_3
REMARK    3  A    between atoms: C_2  and  O_9
REMARK    4  A    between atoms: O_9  and  S_24
REMARK    5  A    between atoms: C_11  and  S_24
REMARK                            x       y       z     vdW  Elec       q    Type
REMARK                         _______ _______ _______ _____ _____    ______ ____
ROOT
ATOM      1  C   UNK A   1      21.892  58.304  27.724  0.00  0.00    +0.044 C 
ATOM      2  C   UNK A   1      20.587  58.549  28.478  0.00  0.00    +0.163 C 
ENDROOT
BRANCH   2   3
ATOM      3  C   UNK A   1      19.928  57.232  28.847  0.00  0.00    -0.018 C 
ATOM      4  C   UNK A   1      18.764  57.224  29.632  0.00  0.00    +0.006 C 
ATOM      5  C   UNK A   1      18.138  56.022  29.965  0.00  0.00    +0.000 C 
ATOM      6  C   UNK A   1      18.663  54.813  29.513  0.00  0.00    +0.000 C 
ATOM      7  C   UNK A   1      19.814  54.804  28.729  0.00  0.00    +0.000 C 
ATOM      8  C   UNK A   1      20.442  56.006  28.396  0.00  0.00    +0.006 C 
ENDBRANCH   2   3
BRANCH   2   9
ATOM      9  O   UNK A   1      20.854  59.276  29.690  0.00  0.00    -0.282 OA
BRANCH   9  12
ATOM     10  O   UNK A   1      20.621  61.415  28.906  0.00  0.00    -0.228 OA
ATOM     11  C   UNK A   1      19.425  60.848  30.903  0.00  0.00    +0.154 C 
ATOM     12  S   UNK A   1      20.346  60.656  29.684  0.00  0.00    +0.154 S 
ENDBRANCH   9  12
ENDBRANCH   2   9
TORSDOF 3
ENDMDL
MODEL 4
REMARK minimizedAffinity -1137.87402
REMARK minimizedRMSD -1
REMARK  Name = Sprod_cov
REMARK  5 active torsions:
REMARK  status: ('A' for Active; 'I' for Inactive)
REMARK    1  A    between atoms: C_1  and  C_2
REMARK    2  A    between atoms: C_2  and  C_3
REMARK    3  A    between atoms: C_2  and  O_9
REMARK    4  A    between atoms: O_9  and  S_24
REMARK    5  A    between atoms: C_11  and  S_24
REMARK                            x       y       z     vdW  Elec       q    Type
REMARK                         _______ _______ _______ _____ _____    ______ ____
ROOT
ATOM      1  C   UNK A   1      19.255  58.638  27.585  0.00  0.00    +0.044 C 
ATOM      2  C   UNK A   1      20.327  58.485  28.662  0.00  0.00    +0.163 C 
ENDROOT
BRANCH   2   3
ATOM      3  C   UNK A   1      21.337  57.424  28.261  0.00  0.00    -0.018 C 
ATOM      4  C   UNK A   1      22.343  57.729  27.328  0.00  0.00    +0.006 C 
ATOM      5  C   UNK A   1      23.288  56.770  26.963  0.00  0.00    +0.000 C 
ATOM      6  C   UNK A   1      23.246  55.497  27.527  0.00  0.00    +0.000 C 
ATOM      7  C   UNK A   1      22.259  55.181  28.458  0.00  0.00    +0.000 C 
ATOM      8  C   UNK A   1      21.311  56.139  28.824  0.00  0.00    +0.006 C 
ENDBRANCH   2   3
BRANCH   2   9
ATOM      9  O   UNK A   1      21.024  59.730  28.835  0.00  0.00    -0.282 OA
BRANCH   9  12
ATOM     10  O   UNK A   1      19.913  61.710  29.141  0.00  0.00    -0.228 OA
ATOM     11  C   UNK A   1      20.069  60.243  31.029  0.00  0.00    +0.154 C 
ATOM     12  S   UNK A   1      20.264  60.741  29.585  0.00  0.00    +0.154 S 
ENDBRANCH   9  12
ENDBRANCH   2   9
TORSDOF 3
ENDMDL
