MODEL 1
REMARK minimizedAffinity -1053.70593
REMARK minimizedRMSD -1
REMARK  Name = Sprod_cov
REMARK  5 active torsions:
REMARK  status: ('A' for Active; 'I' for Inactive)
REMARK    1  A    between atoms: C_1  and  C_2
REMARK    2  A    between atoms: C_2  and  C_3
REMARK    3  A    between atoms: C_2  and  O_9
REMARK    4  A    between atoms: O_9  and  S_24
REMARK    5  A    between atoms: C_11  and  S_24
REMARK                            x       y       z     vdW  Elec       q    Type
REMARK                         _______ _______ _______ _____ _____    ______ ____
ROOT
ATOM      1  C   UNK A   1      18.938  58.297  28.909  0.00  0.00    +0.044 C 
ATOM      2  C   UNK A   1      20.315  58.334  29.568  0.00  0.00    +0.163 C 
ENDROOT
BRANCH   2   3
ATOM      3  C   UNK A   1      21.176  57.186  29.069  0.00  0.00    -0.018 C 
ATOM      4  C   UNK A   1      22.543  57.143  29.388  0.00  0.00    +0.006 C 
ATOM      5  C   UNK A   1      23.343  56.087  28.951  0.00  0.00    +0.000 C 
ATOM      6  C   UNK A   1      22.787  55.057  28.193  0.00  0.00    +0.000 C 
ATOM      7  C   UNK A   1      21.432  55.083  27.873  0.00  0.00    +0.000 C 
ATOM      8  C   UNK A   1      20.630  56.139  28.309  0.00  0.00    +0.006 C 
ENDBRANCH   2   3
BRANCH   2   9
ATOM      9  O   UNK A   1      20.977  59.568  29.246  0.00  0.00    -0.282 OA
BRANCH   9  12
ATOM     10  O   UNK A   1      21.069  60.635  31.271  0.00  0.00    -0.228 OA
ATOM     11  C   UNK A   1      19.907  61.754  29.500  0.00  0.00    +0.154 C 
ATOM     12  S   UNK A   1      20.720  60.653  30.206  0.00  0.00    +0.154 S 
ENDBRANCH   9  12
ENDBRANCH   2   9
TORSDOF 3
ENDMDL
MODEL 2
REMARK minimizedAffinity -1053.00989
REMARK minimizedRMSD -1
REMARK  Name = Sprod_cov
REMARK  5 active torsions:
REMARK  status: ('A' for Active; 'I' for Inactive)
REMARK    1  A    between atoms: C_1  and  C_2
REMARK    2  A    between atoms: C_2  and  C_3
REMARK    3  A    between atoms: C_2  and  O_9
REMARK    4  A    between atoms: O_9  and  S_24
REMARK    5  A    between atoms: C_11  and  S_24
REMARK                            x       y       z     vdW  Elec       q    Type
REMARK                         _______ _______ _______ _____ _____    ______ ____
ROOT
ATOM      1  C   UNK A   1      18.377  58.426  30.535  0.00  0.00    +0.044 C 
ATOM      2  C   UNK A   1      19.841  58.384  30.104  0.00  0.00    +0.163 C 
ENDROOT
BRANCH   2   3
ATOM      3  C   UNK A   1      20.098  57.188  29.205  0.00  0.00    -0.018 C 
ATOM      4  C   UNK A   1      21.061  56.232  29.567  0.00  0.00    +0.006 C 
ATOM      5  C   UNK A   1      21.297  55.118  28.759  0.00  0.00    +0.000 C 
ATOM      6  C   UNK A   1      20.570  54.942  27.583  0.00  0.00    +0.000 C 
ATOM      7  C   UNK A   1      19.608  55.879  27.214  0.00  0.00    +0.000 C 
ATOM      8  C   UNK A   1      19.371  56.994  28.020  0.00  0.00    +0.006 C 
ENDBRANCH   2   3
BRANCH   2   9
ATOM      9  O   UNK A   1      20.168  59.577  29.373  0.00  0.00    -0.282 OA
BRANCH   9  12
ATOM     10  O   UNK A   1      20.283  61.688  30.256  0.00  0.00    -0.228 OA
ATOM     11  C   UNK A   1      21.964  60.125  30.943  0.00  0.00    +0.154 C 
ATOM     12  S   UNK A   1      20.721  60.657  30.206  0.00  0.00    +0.154 S 
ENDBRANCH   9  12
ENDBRANCH   2   9
TORSDOF 3
ENDMDL
MODEL 3
REMARK minimizedAffinity -1051.60583
REMARK minimizedRMSD -1
REMARK  Name = Sprod_cov
REMARK  5 active torsions:
REMARK  status: ('A' for Active; 'I' for Inactive)
REMARK    1  A    between atoms: C_1  and  C_2
REMARK    2  A    between atoms: C_2  and  C_3
REMARK    3  A    between atoms: C_2  and  O_9
REMARK    4  A    between atoms: O_9  and  S_24
REMARK    5  A    between atoms: C_11  and  S_24
REMARK                            x       y       z     vdW  Elec       q    Type
REMARK                         _______ _______ _______ _____ _____    ______ ____
ROOT
ATOM      1  C   UNK A   1      22.819  58.697  29.487  0.00  0.00    +0.044 C 
ATOM      2  C   UNK A   1      21.381  58.654  28.975  0.00  0.00    +0.163 C 
ENDROOT
BRANCH   2   3
ATOM      3  C   UNK A   1      20.950  57.221  28.717  0.00  0.00    -0.018 C 
ATOM      4  C   UNK A   1      19.888  56.955  27.838  0.00  0.00    +0.006 C 
ATOM      5  C   UNK A   1      19.491  55.642  27.577  0.00  0.00    +0.000 C 
ATOM      6  C   UNK A   1      20.153  54.579  28.187  0.00  0.00    +0.000 C 
ATOM      7  C   UNK A   1      21.212  54.826  29.058  0.00  0.00    +0.000 C 
ATOM      8  C   UNK A   1      21.610  56.138  29.320  0.00  0.00    +0.006 C 
ENDBRANCH   2   3
BRANCH   2   9
ATOM      9  O   UNK A   1      20.498  59.221  29.957  0.00  0.00    -0.282 OA
BRANCH   9  12
ATOM     10  O   UNK A   1      21.736  61.110  30.340  0.00  0.00    -0.228 OA
ATOM     11  C   UNK A   1      19.355  61.364  30.258  0.00  0.00    +0.154 C 
ATOM     12  S   UNK A   1      20.721  60.654  30.205  0.00  0.00    +0.154 S 
ENDBRANCH   9  12
ENDBRANCH   2   9
TORSDOF 3
ENDMDL
